<?xml version="1.0" encoding="UTF-8"?>

<!-- generated on Sun Feb 25 18:31:12 2018 by SUMO duarouter Version v0_32_0+0424-45083a6
<configuration xmlns:xsi="http://www.w3.org/2001/XMLSchema-instance" xsi:noNamespaceSchemaLocation="http://sumo.dlr.de/xsd/duarouterConfiguration.xsd">

    <input>
        <net-file value="schutter.net.xml"/>
        <route-files value="trips.trips.xml"/>
    </input>

    <output>
        <output-file value="routes.rou.xml"/>
        <alternatives-output value="routes.rou.alt.xml"/>
    </output>

    <processing>
        <ignore-errors value="true"/>
    </processing>

    <time>
        <begin value="0"/>
        <end value="1000.0"/>
    </time>

    <report>
        <no-warnings value="true"/>
        <no-step-log value="true"/>
    </report>

</configuration>
-->

<routes xmlns:xsi="http://www.w3.org/2001/XMLSchema-instance" xsi:noNamespaceSchemaLocation="http://sumo.dlr.de/xsd/routes_file.xsd">
    <vehicle id="0" depart="0.00">
        <route edges="l1_3 -l3_3 l1_4"/>
    </vehicle>
    <vehicle id="4" depart="4.00">
        <route edges="l4_1 -l3_1"/>
    </vehicle>
    <vehicle id="6" depart="6.00">
        <route edges="l3_4 -l1_4 l3_3 -l2_3 l4_1 -l3_1 l1_2"/>
    </vehicle>
    <vehicle id="8" depart="8.00">
        <route edges="-l2_3 l4_1 -l3_1 l1_2 -l4_2 l2_4 -l1_4 l3_3 -l1_3"/>
    </vehicle>
    <vehicle id="14" depart="14.00">
        <route edges="l2_1 -l4_1 l2_3"/>
    </vehicle>
    <vehicle id="17" depart="17.00">
        <route edges="l1_1 -l3_1 l1_2"/>
    </vehicle>
    <vehicle id="18" depart="18.00">
        <route edges="l1_2 -l4_2 l2_4"/>
    </vehicle>
    <vehicle id="25" depart="25.00">
        <route edges="l2_1 -l4_1 l2_3"/>
    </vehicle>
    <vehicle id="29" depart="29.00">
        <route edges="l1_1 -l4_1 l2_3 -l1_3"/>
    </vehicle>
    <vehicle id="34" depart="34.00">
        <route edges="l1_3 -l3_3 l1_4 -l4_4"/>
    </vehicle>
    <vehicle id="35" depart="35.00">
        <route edges="l4_3 -l3_3"/>
    </vehicle>
    <vehicle id="36" depart="36.00">
        <route edges="l1_1 -l4_1 l2_3 -l4_3"/>
    </vehicle>
    <vehicle id="42" depart="42.00">
        <route edges="l3_2 -l1_2"/>
    </vehicle>
    <vehicle id="43" depart="43.00">
        <route edges="l1_2 -l4_2 l2_4 -l1_4 l3_3 -l2_3"/>
    </vehicle>
    <vehicle id="54" depart="54.00">
        <route edges="l1_1 -l4_1"/>
    </vehicle>
    <vehicle id="55" depart="55.00">
        <route edges="l4_4 -l2_4 l4_2 -l2_2"/>
    </vehicle>
    <vehicle id="57" depart="57.00">
        <route edges="l2_2 -l1_2 l3_1"/>
    </vehicle>
    <vehicle id="62" depart="62.00">
        <route edges="l1_1 -l3_1 l1_2 -l4_2 l2_4 -l1_4 l3_3 -l2_3 l4_1 -l2_1"/>
    </vehicle>
    <vehicle id="68" depart="68.00">
        <route edges="-l1_4 l3_3 -l2_3 l4_1 -l3_1 l1_2 -l3_2"/>
    </vehicle>
    <vehicle id="69" depart="69.00">
        <route edges="-l3_1 l1_2 -l4_2 l2_4 -l1_4 l3_3 -l2_3 l4_1"/>
    </vehicle>
    <vehicle id="71" depart="71.00">
        <route edges="-l2_4 l4_2 -l3_2"/>
    </vehicle>
    <vehicle id="72" depart="72.00">
        <route edges="-l3_1 l1_2 -l4_2 l2_4 -l1_4 l3_3 -l2_3 l4_1"/>
    </vehicle>
    <vehicle id="74" depart="74.00">
        <route edges="-l4_2 l2_4 -l4_4"/>
    </vehicle>
    <vehicle id="75" depart="75.00">
        <route edges="l1_2 -l3_2"/>
    </vehicle>
    <vehicle id="76" depart="76.00">
        <route edges="l4_1 -l2_1"/>
    </vehicle>
    <vehicle id="79" depart="79.00">
        <route edges="-l3_1 l1_2 -l4_2 l2_4 -l1_4"/>
    </vehicle>
    <vehicle id="80" depart="80.00">
        <route edges="l2_4"/>
    </vehicle>
    <vehicle id="82" depart="82.00">
        <route edges="-l1_4 l3_3 -l2_3 l4_1"/>
    </vehicle>
    <vehicle id="87" depart="87.00">
        <route edges="l3_3 -l2_3 l4_1"/>
    </vehicle>
    <vehicle id="96" depart="96.00">
        <route edges="-l2_3 l4_1"/>
    </vehicle>
    <vehicle id="98" depart="98.00">
        <route edges="-l3_1 l1_2 -l4_2 l2_4"/>
    </vehicle>
    <vehicle id="100" depart="100.00">
        <route edges="-l1_4 l3_3 -l2_3 l4_1 -l3_1 l1_2 -l4_2 l2_4"/>
    </vehicle>
    <vehicle id="101" depart="101.00">
        <route edges="l3_4 -l1_4 l3_3 -l1_3"/>
    </vehicle>
    <vehicle id="104" depart="104.00">
        <route edges="-l3_1 l1_2 -l4_2 l2_4"/>
    </vehicle>
    <vehicle id="106" depart="106.00">
        <route edges="l2_1 -l4_1 l2_3 -l4_3"/>
    </vehicle>
    <vehicle id="108" depart="108.00">
        <route edges="l4_1 -l3_1 l1_2 -l4_2 l2_4 -l1_4 l3_3 -l1_3"/>
    </vehicle>
    <vehicle id="110" depart="110.00">
        <route edges="l4_1 -l3_1 l1_2 -l4_2 l2_4 -l1_4 l3_3 -l2_3"/>
    </vehicle>
    <vehicle id="113" depart="113.00">
        <route edges="l1_2 -l4_2 l2_4"/>
    </vehicle>
    <vehicle id="114" depart="114.00">
        <route edges="-l1_4 l3_3 -l2_3 l4_1 -l3_1 l1_2 -l3_2"/>
    </vehicle>
    <vehicle id="118" depart="118.00">
        <route edges="l3_4 -l1_4 l3_3 -l2_3 l4_1"/>
    </vehicle>
    <vehicle id="119" depart="119.00">
        <route edges="-l2_3 l4_1 -l3_1 l1_2 -l4_2"/>
    </vehicle>
    <vehicle id="121" depart="121.00">
        <route edges="l1_3 -l3_3 l1_4"/>
    </vehicle>
    <vehicle id="126" depart="126.00">
        <route edges="l1_1 -l3_1 l1_2 -l4_2 l2_4 -l1_4 l3_3 -l2_3 l4_1"/>
    </vehicle>
    <vehicle id="129" depart="129.00">
        <route edges="l2_2 -l1_2 l3_1 -l2_1"/>
    </vehicle>
    <vehicle id="133" depart="133.00">
        <route edges="l2_2 -l1_2 l3_1 -l2_1"/>
    </vehicle>
    <vehicle id="134" depart="134.00">
        <route edges="l1_4"/>
    </vehicle>
    <vehicle id="142" depart="142.00">
        <route edges="l3_3 -l2_3 l4_1 -l3_1 l1_2 -l4_2 l2_4 -l1_4"/>
    </vehicle>
    <vehicle id="144" depart="144.00">
        <route edges="-l3_1 l1_2 -l4_2 l2_4 -l1_4 l3_3 -l2_3 l4_1"/>
    </vehicle>
    <vehicle id="148" depart="148.00">
        <route edges="l1_2 -l4_2 l2_4"/>
    </vehicle>
    <vehicle id="156" depart="156.00">
        <route edges="l1_3 -l3_3"/>
    </vehicle>
    <vehicle id="173" depart="173.00">
        <route edges="l4_1 -l3_1 l1_2 -l4_2 l2_4 -l4_4"/>
    </vehicle>
    <vehicle id="181" depart="181.00">
        <route edges="-l4_2 l2_4 -l1_4 l3_3 -l2_3 l4_1 -l3_1 l1_2 -l3_2"/>
    </vehicle>
    <vehicle id="188" depart="188.00">
        <route edges="-l3_1 l1_2 -l3_2"/>
    </vehicle>
    <vehicle id="189" depart="189.00">
        <route edges="l1_1 -l4_1 l2_3"/>
    </vehicle>
    <vehicle id="191" depart="191.00">
        <route edges="l2_2 -l1_2 l3_1 -l1_1"/>
    </vehicle>
    <vehicle id="195" depart="195.00">
        <route edges="l3_4 -l1_4 l3_3 -l2_3 l4_1 -l2_1"/>
    </vehicle>
    <vehicle id="197" depart="197.00">
        <route edges="-l4_2"/>
    </vehicle>
    <vehicle id="199" depart="199.00">
        <route edges="l2_2 -l4_2 l2_4 -l1_4 l3_3 -l2_3 l4_1"/>
    </vehicle>
    <vehicle id="200" depart="200.00">
        <route edges="l2_2 -l1_2 l3_1 -l2_1"/>
    </vehicle>
    <vehicle id="202" depart="202.00">
        <route edges="l4_1 -l2_1"/>
    </vehicle>
    <vehicle id="205" depart="205.00">
        <route edges="-l2_3 l4_1 -l3_1 l1_2 -l4_2 l2_4 -l1_4 l3_3 -l1_3"/>
    </vehicle>
    <vehicle id="210" depart="210.00">
        <route edges="l3_1"/>
    </vehicle>
    <vehicle id="213" depart="213.00">
        <route edges="l1_2 -l4_2 l2_4 -l1_4 l3_3 -l2_3 l4_1 -l2_1"/>
    </vehicle>
    <vehicle id="218" depart="218.00">
        <route edges="l2_4 -l1_4 l3_3 -l2_3 l4_1"/>
    </vehicle>
    <vehicle id="221" depart="221.00">
        <route edges="-l1_4 l3_3 -l2_3 l4_1 -l3_1 l1_2"/>
    </vehicle>
    <vehicle id="223" depart="223.00">
        <route edges="-l1_4 l3_3 -l2_3 l4_1 -l3_1 l1_2"/>
    </vehicle>
    <vehicle id="226" depart="226.00">
        <route edges="l2_1 -l4_1 l2_3"/>
    </vehicle>
    <vehicle id="227" depart="227.00">
        <route edges="l3_4 -l1_4 l3_3 -l2_3 l4_1"/>
    </vehicle>
    <vehicle id="228" depart="228.00">
        <route edges="l2_2 -l4_2 l2_4 -l1_4 l3_3 -l1_3"/>
    </vehicle>
    <vehicle id="229" depart="229.00">
        <route edges="l1_3 -l3_3 l1_4 -l3_4"/>
    </vehicle>
    <vehicle id="230" depart="230.00">
        <route edges="-l4_2 l2_4 -l1_4 l3_3 -l2_3 l4_1 -l3_1 l1_2 -l3_2"/>
    </vehicle>
    <vehicle id="236" depart="236.00">
        <route edges="l1_1 -l3_1 l1_2 -l4_2 l2_4 -l4_4"/>
    </vehicle>
    <vehicle id="237" depart="237.00">
        <route edges="l3_4 -l2_4"/>
    </vehicle>
    <vehicle id="239" depart="239.00">
        <route edges="l1_2 -l4_2 l2_4"/>
    </vehicle>
    <vehicle id="241" depart="241.00">
        <route edges="l3_1 -l1_1"/>
    </vehicle>
    <vehicle id="243" depart="243.00">
        <route edges="-l1_2 l3_1 -l2_1"/>
    </vehicle>
    <vehicle id="246" depart="246.00">
        <route edges="-l2_3 l4_1 -l3_1 l1_2 -l4_2"/>
    </vehicle>
    <vehicle id="252" depart="252.00">
        <route edges="l3_4 -l2_4 l4_2 -l3_2"/>
    </vehicle>
    <vehicle id="254" depart="254.00">
        <route edges="l2_2 -l4_2 l2_4 -l1_4 l3_3 -l1_3"/>
    </vehicle>
    <vehicle id="265" depart="265.00">
        <route edges="l2_4 -l1_4 l3_3 -l1_3"/>
    </vehicle>
    <vehicle id="266" depart="266.00">
        <route edges="l4_4 -l2_4 l4_2 -l3_2"/>
    </vehicle>
    <vehicle id="270" depart="270.00">
        <route edges="l1_1 -l3_1 l1_2 -l4_2 l2_4 -l1_4 l3_3"/>
    </vehicle>
    <vehicle id="272" depart="272.00">
        <route edges="l2_2 -l4_2 l2_4 -l1_4 l3_3 -l2_3 l4_1 -l3_1"/>
    </vehicle>
    <vehicle id="273" depart="273.00">
        <route edges="l3_1"/>
    </vehicle>
    <vehicle id="278" depart="278.00">
        <route edges="l1_1 -l4_1 l2_3 -l4_3"/>
    </vehicle>
    <vehicle id="281" depart="281.00">
        <route edges="l2_1 -l4_1 l2_3"/>
    </vehicle>
    <vehicle id="284" depart="284.00">
        <route edges="-l3_1 l1_2 -l4_2 l2_4 -l1_4 l3_3 -l2_3"/>
    </vehicle>
    <vehicle id="285" depart="285.00">
        <route edges="-l2_4 l4_2"/>
    </vehicle>
    <vehicle id="287" depart="287.00">
        <route edges="l4_2 -l2_2"/>
    </vehicle>
    <vehicle id="290" depart="290.00">
        <route edges="-l1_2 l3_1 -l2_1"/>
    </vehicle>
    <vehicle id="292" depart="292.00">
        <route edges="l1_4 -l3_4"/>
    </vehicle>
    <vehicle id="294" depart="294.00">
        <route edges="l1_1 -l3_1 l1_2"/>
    </vehicle>
    <vehicle id="295" depart="295.00">
        <route edges="l1_2"/>
    </vehicle>
    <vehicle id="296" depart="296.00">
        <route edges="l4_3 -l3_3 l1_4"/>
    </vehicle>
    <vehicle id="297" depart="297.00">
        <route edges="l2_4 -l1_4 l3_3"/>
    </vehicle>
    <vehicle id="303" depart="303.00">
        <route edges="l3_4 -l2_4"/>
    </vehicle>
    <vehicle id="309" depart="309.00">
        <route edges="l4_4 -l2_4 l4_2 -l3_2"/>
    </vehicle>
    <vehicle id="312" depart="312.00">
        <route edges="l4_1 -l2_1"/>
    </vehicle>
    <vehicle id="315" depart="315.00">
        <route edges="l2_1 -l4_1 l2_3 -l1_3"/>
    </vehicle>
    <vehicle id="320" depart="320.00">
        <route edges="l3_2 -l1_2"/>
    </vehicle>
    <vehicle id="321" depart="321.00">
        <route edges="l1_2 -l4_2 l2_4 -l4_4"/>
    </vehicle>
    <vehicle id="322" depart="322.00">
        <route edges="l2_3"/>
    </vehicle>
    <vehicle id="323" depart="323.00">
        <route edges="-l4_1 l2_3"/>
    </vehicle>
    <vehicle id="324" depart="324.00">
        <route edges="l2_4 -l1_4 l3_3 -l1_3"/>
    </vehicle>
    <vehicle id="327" depart="327.00">
        <route edges="-l4_1 l2_3"/>
    </vehicle>
    <vehicle id="328" depart="328.00">
        <route edges="l2_3"/>
    </vehicle>
    <vehicle id="330" depart="330.00">
        <route edges="-l4_2 l2_4"/>
    </vehicle>
    <vehicle id="331" depart="331.00">
        <route edges="-l3_3"/>
    </vehicle>
    <vehicle id="332" depart="332.00">
        <route edges="l2_4 -l4_4"/>
    </vehicle>
    <vehicle id="338" depart="338.00">
        <route edges="l4_4 -l2_4 l4_2 -l3_2"/>
    </vehicle>
    <vehicle id="347" depart="347.00">
        <route edges="-l1_2 l3_1"/>
    </vehicle>
    <vehicle id="348" depart="348.00">
        <route edges="l1_2 -l4_2 l2_4 -l1_4 l3_3 -l1_3"/>
    </vehicle>
    <vehicle id="350" depart="350.00">
        <route edges="-l4_1 l2_3 -l1_3"/>
    </vehicle>
    <vehicle id="351" depart="351.00">
        <route edges="l3_4 -l2_4 l4_2"/>
    </vehicle>
    <vehicle id="356" depart="356.00">
        <route edges="l2_2 -l1_2 l3_1 -l1_1"/>
    </vehicle>
    <vehicle id="360" depart="360.00">
        <route edges="l2_1 -l4_1 l2_3"/>
    </vehicle>
    <vehicle id="361" depart="361.00">
        <route edges="-l4_2 l2_4 -l1_4 l3_3 -l2_3 l4_1 -l3_1"/>
    </vehicle>
    <vehicle id="365" depart="365.00">
        <route edges="l4_1 -l3_1 l1_2 -l4_2 l2_4 -l1_4"/>
    </vehicle>
    <vehicle id="367" depart="367.00">
        <route edges="l3_3"/>
    </vehicle>
    <vehicle id="369" depart="369.00">
        <route edges="-l3_1"/>
    </vehicle>
    <vehicle id="371" depart="371.00">
        <route edges="-l1_2 l3_1 -l2_1"/>
    </vehicle>
    <vehicle id="377" depart="377.00">
        <route edges="-l2_3 l4_1 -l3_1 l1_2 -l4_2 l2_4 -l4_4"/>
    </vehicle>
    <vehicle id="378" depart="378.00">
        <route edges="-l1_4 l3_3 -l2_3 l4_1 -l3_1 l1_2 -l4_2"/>
    </vehicle>
    <vehicle id="387" depart="387.00">
        <route edges="-l2_4"/>
    </vehicle>
    <vehicle id="388" depart="388.00">
        <route edges="-l1_4 l3_3 -l2_3 l4_1 -l3_1 l1_2 -l4_2"/>
    </vehicle>
    <vehicle id="396" depart="396.00">
        <route edges="-l1_2"/>
    </vehicle>
    <vehicle id="398" depart="398.00">
        <route edges="l3_4 -l1_4 l3_3 -l2_3 l4_1 -l3_1 l1_2"/>
    </vehicle>
    <vehicle id="402" depart="402.00">
        <route edges="l4_4 -l2_4 l4_2"/>
    </vehicle>
    <vehicle id="404" depart="404.00">
        <route edges="l3_3 -l1_3"/>
    </vehicle>
    <vehicle id="406" depart="406.00">
        <route edges="-l1_4 l3_3 -l2_3 l4_1 -l3_1 l1_2 -l4_2 l2_4"/>
    </vehicle>
    <vehicle id="407" depart="407.00">
        <route edges="l4_3 -l2_3 l4_1 -l3_1 l1_2 -l4_2 l2_4 -l1_4 l3_3"/>
    </vehicle>
    <vehicle id="409" depart="409.00">
        <route edges="l3_3 -l2_3 l4_1 -l3_1 l1_2 -l3_2"/>
    </vehicle>
    <vehicle id="413" depart="413.00">
        <route edges="-l4_1 l2_3"/>
    </vehicle>
    <vehicle id="414" depart="414.00">
        <route edges="-l3_1 l1_2 -l4_2"/>
    </vehicle>
    <vehicle id="416" depart="416.00">
        <route edges="l1_2 -l4_2 l2_4 -l1_4 l3_3 -l2_3 l4_1 -l3_1"/>
    </vehicle>
    <vehicle id="417" depart="417.00">
        <route edges="-l1_2"/>
    </vehicle>
    <vehicle id="424" depart="424.00">
        <route edges="l4_1 -l3_1 l1_2 -l4_2"/>
    </vehicle>
    <vehicle id="429" depart="429.00">
        <route edges="l2_4 -l1_4 l3_3 -l2_3 l4_1 -l3_1"/>
    </vehicle>
    <vehicle id="430" depart="430.00">
        <route edges="l4_3 -l2_3 l4_1 -l3_1 l1_2 -l3_2"/>
    </vehicle>
    <vehicle id="433" depart="433.00">
        <route edges="l4_3 -l2_3 l4_1 -l3_1"/>
    </vehicle>
    <vehicle id="434" depart="434.00">
        <route edges="l4_1 -l3_1 l1_2 -l4_2 l2_4 -l4_4"/>
    </vehicle>
    <vehicle id="435" depart="435.00">
        <route edges="l3_4 -l2_4 l4_2"/>
    </vehicle>
    <vehicle id="437" depart="437.00">
        <route edges="l3_4 -l1_4 l3_3 -l2_3 l4_1 -l3_1 l1_2 -l4_2 l2_4"/>
    </vehicle>
    <vehicle id="438" depart="438.00">
        <route edges="l2_4 -l1_4 l3_3 -l2_3 l4_1 -l3_1 l1_2 -l4_2"/>
    </vehicle>
    <vehicle id="444" depart="444.00">
        <route edges="l3_3 -l2_3 l4_1 -l3_1 l1_2 -l4_2 l2_4"/>
    </vehicle>
    <vehicle id="445" depart="445.00">
        <route edges="l3_3 -l2_3 l4_1 -l2_1"/>
    </vehicle>
    <vehicle id="446" depart="446.00">
        <route edges="-l4_2 l2_4 -l1_4"/>
    </vehicle>
    <vehicle id="448" depart="448.00">
        <route edges="-l4_2 l2_4 -l1_4 l3_3 -l1_3"/>
    </vehicle>
    <vehicle id="450" depart="450.00">
        <route edges="l1_1 -l3_1 l1_2 -l4_2"/>
    </vehicle>
    <vehicle id="453" depart="453.00">
        <route edges="l4_4 -l2_4 l4_2"/>
    </vehicle>
    <vehicle id="454" depart="454.00">
        <route edges="-l2_3 l4_1 -l3_1 l1_2 -l4_2"/>
    </vehicle>
    <vehicle id="456" depart="456.00">
        <route edges="-l2_3 l4_1 -l3_1 l1_2 -l4_2 l2_4 -l4_4"/>
    </vehicle>
    <vehicle id="457" depart="457.00">
        <route edges="l2_2 -l1_2"/>
    </vehicle>
    <vehicle id="458" depart="458.00">
        <route edges="-l1_2"/>
    </vehicle>
    <vehicle id="460" depart="460.00">
        <route edges="l1_1 -l3_1 l1_2"/>
    </vehicle>
    <vehicle id="462" depart="462.00">
        <route edges="-l2_4 l4_2 -l2_2"/>
    </vehicle>
    <vehicle id="468" depart="468.00">
        <route edges="l1_2 -l4_2 l2_4 -l1_4 l3_3 -l1_3"/>
    </vehicle>
    <vehicle id="472" depart="472.00">
        <route edges="-l4_2 l2_4 -l1_4"/>
    </vehicle>
    <vehicle id="475" depart="475.00">
        <route edges="l3_4 -l2_4"/>
    </vehicle>
    <vehicle id="479" depart="479.00">
        <route edges="l4_2 -l2_2"/>
    </vehicle>
    <vehicle id="484" depart="484.00">
        <route edges="-l1_4 l3_3 -l2_3 l4_1"/>
    </vehicle>
    <vehicle id="485" depart="485.00">
        <route edges="l2_4 -l1_4 l3_3 -l1_3"/>
    </vehicle>
    <vehicle id="489" depart="489.00">
        <route edges="l4_3 -l2_3 l4_1 -l2_1"/>
    </vehicle>
    <vehicle id="490" depart="490.00">
        <route edges="l2_4 -l1_4 l3_3 -l2_3 l4_1"/>
    </vehicle>
    <vehicle id="497" depart="497.00">
        <route edges="-l4_2"/>
    </vehicle>
    <vehicle id="499" depart="499.00">
        <route edges="l2_2 -l4_2 l2_4 -l1_4 l3_3 -l2_3 l4_1 -l3_1"/>
    </vehicle>
    <vehicle id="503" depart="503.00">
        <route edges="-l1_2 l3_1"/>
    </vehicle>
    <vehicle id="509" depart="509.00">
        <route edges="l3_3 -l2_3 l4_1"/>
    </vehicle>
    <vehicle id="510" depart="510.00">
        <route edges="-l2_3 l4_1 -l3_1 l1_2 -l4_2 l2_4 -l1_4"/>
    </vehicle>
    <vehicle id="514" depart="514.00">
        <route edges="-l3_1 l1_2 -l4_2 l2_4 -l1_4 l3_3 -l2_3 l4_1 -l2_1"/>
    </vehicle>
    <vehicle id="516" depart="516.00">
        <route edges="l2_4 -l1_4 l3_3 -l2_3 l4_1 -l3_1 l1_2 -l3_2"/>
    </vehicle>
    <vehicle id="517" depart="517.00">
        <route edges="l4_4 -l2_4 l4_2 -l3_2"/>
    </vehicle>
    <vehicle id="519" depart="519.00">
        <route edges="l2_2 -l4_2 l2_4 -l1_4 l3_3 -l2_3 l4_1 -l3_1 l1_2"/>
    </vehicle>
    <vehicle id="522" depart="522.00">
        <route edges="l1_2 -l4_2 l2_4 -l1_4 l3_3 -l2_3"/>
    </vehicle>
    <vehicle id="525" depart="525.00">
        <route edges="-l4_2 l2_4 -l1_4 l3_3 -l2_3 l4_1"/>
    </vehicle>
    <vehicle id="528" depart="528.00">
        <route edges="l4_3 -l3_3 l1_4 -l4_4"/>
    </vehicle>
    <vehicle id="531" depart="531.00">
        <route edges="l1_2 -l4_2 l2_4 -l1_4 l3_3"/>
    </vehicle>
    <vehicle id="533" depart="533.00">
        <route edges="-l1_4 l3_3 -l2_3 l4_1 -l3_1 l1_2 -l3_2"/>
    </vehicle>
    <vehicle id="534" depart="534.00">
        <route edges="l4_2"/>
    </vehicle>
    <vehicle id="536" depart="536.00">
        <route edges="-l2_3 l4_1"/>
    </vehicle>
    <vehicle id="539" depart="539.00">
        <route edges="l4_3 -l2_3 l4_1 -l3_1"/>
    </vehicle>
    <vehicle id="541" depart="541.00">
        <route edges="-l2_3 l4_1"/>
    </vehicle>
    <vehicle id="547" depart="547.00">
        <route edges="l1_4 -l4_4"/>
    </vehicle>
    <vehicle id="548" depart="548.00">
        <route edges="l2_1 -l4_1 l2_3"/>
    </vehicle>
    <vehicle id="549" depart="549.00">
        <route edges="l4_4 -l2_4 l4_2 -l3_2"/>
    </vehicle>
    <vehicle id="550" depart="550.00">
        <route edges="-l4_2 l2_4 -l1_4 l3_3 -l2_3 l4_1 -l3_1"/>
    </vehicle>
    <vehicle id="552" depart="552.00">
        <route edges="l1_2 -l4_2 l2_4 -l1_4 l3_3 -l2_3 l4_1"/>
    </vehicle>
    <vehicle id="562" depart="562.00">
        <route edges="l4_1 -l2_1"/>
    </vehicle>
    <vehicle id="569" depart="569.00">
        <route edges="l4_1 -l3_1 l1_2 -l4_2 l2_4 -l1_4 l3_3"/>
    </vehicle>
    <vehicle id="571" depart="571.00">
        <route edges="l4_1 -l3_1 l1_2 -l3_2"/>
    </vehicle>
    <vehicle id="573" depart="573.00">
        <route edges="-l1_4 l3_3 -l1_3"/>
    </vehicle>
    <vehicle id="577" depart="577.00">
        <route edges="l1_1 -l3_1 l1_2 -l4_2 l2_4 -l1_4 l3_3"/>
    </vehicle>
    <vehicle id="590" depart="590.00">
        <route edges="l3_4 -l2_4 l4_2 -l3_2"/>
    </vehicle>
    <vehicle id="591" depart="591.00">
        <route edges="l2_2 -l1_2 l3_1 -l1_1"/>
    </vehicle>
    <vehicle id="592" depart="592.00">
        <route edges="-l2_3 l4_1 -l3_1 l1_2 -l4_2 l2_4 -l1_4 l3_3"/>
    </vehicle>
    <vehicle id="595" depart="595.00">
        <route edges="-l1_4 l3_3 -l2_3 l4_1 -l3_1 l1_2 -l4_2"/>
    </vehicle>
    <vehicle id="596" depart="596.00">
        <route edges="l1_1 -l3_1 l1_2 -l4_2 l2_4 -l1_4 l3_3 -l2_3"/>
    </vehicle>
    <vehicle id="598" depart="598.00">
        <route edges="l1_2 -l4_2 l2_4 -l1_4 l3_3"/>
    </vehicle>
    <vehicle id="600" depart="600.00">
        <route edges="-l4_2 l2_4 -l1_4 l3_3 -l2_3 l4_1 -l3_1"/>
    </vehicle>
    <vehicle id="606" depart="606.00">
        <route edges="l4_1 -l3_1 l1_2 -l4_2 l2_4 -l1_4 l3_3 -l1_3"/>
    </vehicle>
    <vehicle id="607" depart="607.00">
        <route edges="-l1_4 l3_3 -l2_3 l4_1 -l3_1 l1_2 -l4_2"/>
    </vehicle>
    <vehicle id="609" depart="609.00">
        <route edges="-l1_4"/>
    </vehicle>
    <vehicle id="610" depart="610.00">
        <route edges="l1_2 -l4_2 l2_4 -l1_4 l3_3"/>
    </vehicle>
    <vehicle id="615" depart="615.00">
        <route edges="l2_2 -l4_2 l2_4 -l1_4 l3_3 -l2_3"/>
    </vehicle>
    <vehicle id="616" depart="616.00">
        <route edges="l1_2 -l4_2 l2_4 -l1_4 l3_3 -l2_3"/>
    </vehicle>
    <vehicle id="617" depart="617.00">
        <route edges="l1_1 -l4_1 l2_3 -l4_3"/>
    </vehicle>
    <vehicle id="620" depart="620.00">
        <route edges="l3_1 -l1_1"/>
    </vehicle>
    <vehicle id="623" depart="623.00">
        <route edges="-l1_4"/>
    </vehicle>
    <vehicle id="625" depart="625.00">
        <route edges="-l3_1 l1_2 -l4_2 l2_4 -l4_4"/>
    </vehicle>
    <vehicle id="626" depart="626.00">
        <route edges="l1_1 -l3_1 l1_2 -l4_2 l2_4 -l1_4 l3_3"/>
    </vehicle>
    <vehicle id="628" depart="628.00">
        <route edges="-l3_1 l1_2 -l4_2 l2_4 -l1_4 l3_3 -l2_3 l4_1"/>
    </vehicle>
    <vehicle id="629" depart="629.00">
        <route edges="-l2_3 l4_1"/>
    </vehicle>
    <vehicle id="630" depart="630.00">
        <route edges="l3_4 -l1_4 l3_3 -l2_3 l4_1 -l3_1 l1_2"/>
    </vehicle>
    <vehicle id="633" depart="633.00">
        <route edges="l2_1 -l4_1 l2_3 -l1_3"/>
    </vehicle>
    <vehicle id="634" depart="634.00">
        <route edges="l1_2 -l4_2 l2_4 -l1_4 l3_3 -l2_3 l4_1 -l3_1"/>
    </vehicle>
    <vehicle id="635" depart="635.00">
        <route edges="l4_1 -l3_1 l1_2 -l4_2 l2_4 -l1_4"/>
    </vehicle>
    <vehicle id="637" depart="637.00">
        <route edges="l4_1"/>
    </vehicle>
    <vehicle id="640" depart="640.00">
        <route edges="l3_4 -l2_4"/>
    </vehicle>
    <vehicle id="642" depart="642.00">
        <route edges="-l3_1 l1_2 -l4_2 l2_4 -l1_4 l3_3"/>
    </vehicle>
    <vehicle id="644" depart="644.00">
        <route edges="-l2_3 l4_1 -l3_1"/>
    </vehicle>
    <vehicle id="646" depart="646.00">
        <route edges="l2_1 -l4_1 l2_3"/>
    </vehicle>
    <vehicle id="651" depart="651.00">
        <route edges="-l2_3 l4_1 -l3_1 l1_2 -l4_2"/>
    </vehicle>
    <vehicle id="652" depart="652.00">
        <route edges="l3_3"/>
    </vehicle>
    <vehicle id="655" depart="655.00">
        <route edges="-l3_3"/>
    </vehicle>
    <vehicle id="656" depart="656.00">
        <route edges="-l3_3 l1_4 -l3_4"/>
    </vehicle>
    <vehicle id="658" depart="658.00">
        <route edges="l4_1 -l3_1 l1_2 -l3_2"/>
    </vehicle>
    <vehicle id="662" depart="662.00">
        <route edges="-l3_3"/>
    </vehicle>
    <vehicle id="663" depart="663.00">
        <route edges="l3_3 -l2_3 l4_1"/>
    </vehicle>
    <vehicle id="664" depart="664.00">
        <route edges="l1_2 -l3_2"/>
    </vehicle>
    <vehicle id="666" depart="666.00">
        <route edges="-l2_4"/>
    </vehicle>
    <vehicle id="676" depart="676.00">
        <route edges="-l1_4 l3_3"/>
    </vehicle>
    <vehicle id="680" depart="680.00">
        <route edges="-l1_4 l3_3 -l2_3 l4_1 -l3_1"/>
    </vehicle>
    <vehicle id="686" depart="686.00">
        <route edges="-l1_4 l3_3"/>
    </vehicle>
    <vehicle id="690" depart="690.00">
        <route edges="l4_3 -l3_3"/>
    </vehicle>
    <vehicle id="691" depart="691.00">
        <route edges="l4_3 -l2_3 l4_1 -l2_1"/>
    </vehicle>
    <vehicle id="692" depart="692.00">
        <route edges="-l2_3 l4_1 -l3_1 l1_2 -l3_2"/>
    </vehicle>
    <vehicle id="693" depart="693.00">
        <route edges="l4_1"/>
    </vehicle>
    <vehicle id="694" depart="694.00">
        <route edges="l3_4 -l1_4 l3_3 -l2_3 l4_1 -l2_1"/>
    </vehicle>
    <vehicle id="696" depart="696.00">
        <route edges="l3_2 -l1_2"/>
    </vehicle>
    <vehicle id="700" depart="700.00">
        <route edges="l4_3 -l3_3 l1_4"/>
    </vehicle>
    <vehicle id="704" depart="704.00">
        <route edges="l1_3 -l3_3"/>
    </vehicle>
    <vehicle id="705" depart="705.00">
        <route edges="l2_1 -l4_1 l2_3"/>
    </vehicle>
    <vehicle id="706" depart="706.00">
        <route edges="-l2_4"/>
    </vehicle>
    <vehicle id="708" depart="708.00">
        <route edges="l1_2 -l4_2 l2_4 -l1_4 l3_3 -l2_3 l4_1"/>
    </vehicle>
    <vehicle id="710" depart="710.00">
        <route edges="-l4_2 l2_4 -l1_4 l3_3 -l2_3 l4_1 -l3_1 l1_2 -l3_2"/>
    </vehicle>
    <vehicle id="714" depart="714.00">
        <route edges="-l3_1 l1_2 -l4_2 l2_4 -l1_4 l3_3 -l2_3 l4_1"/>
    </vehicle>
    <vehicle id="717" depart="717.00">
        <route edges="-l2_3 l4_1 -l3_1 l1_2"/>
    </vehicle>
    <vehicle id="722" depart="722.00">
        <route edges="l2_2 -l4_2 l2_4 -l1_4 l3_3"/>
    </vehicle>
    <vehicle id="725" depart="725.00">
        <route edges="l3_4 -l1_4 l3_3 -l2_3 l4_1 -l3_1 l1_2 -l4_2"/>
    </vehicle>
    <vehicle id="728" depart="728.00">
        <route edges="l1_3 -l3_3"/>
    </vehicle>
    <vehicle id="734" depart="734.00">
        <route edges="l4_3 -l3_3 l1_4 -l4_4"/>
    </vehicle>
    <vehicle id="737" depart="737.00">
        <route edges="l3_3"/>
    </vehicle>
    <vehicle id="741" depart="741.00">
        <route edges="l2_2 -l4_2 l2_4"/>
    </vehicle>
    <vehicle id="752" depart="752.00">
        <route edges="l1_3 -l3_3 l1_4"/>
    </vehicle>
    <vehicle id="762" depart="762.00">
        <route edges="l2_3 -l1_3"/>
    </vehicle>
    <vehicle id="763" depart="763.00">
        <route edges="-l1_4"/>
    </vehicle>
    <vehicle id="764" depart="764.00">
        <route edges="-l3_3"/>
    </vehicle>
    <vehicle id="766" depart="766.00">
        <route edges="-l3_3 l1_4 -l3_4"/>
    </vehicle>
    <vehicle id="767" depart="767.00">
        <route edges="l2_2 -l4_2 l2_4 -l1_4 l3_3 -l2_3 l4_1 -l3_1 l1_2"/>
    </vehicle>
    <vehicle id="769" depart="769.00">
        <route edges="l4_1 -l3_1 l1_2 -l4_2 l2_4 -l4_4"/>
    </vehicle>
    <vehicle id="774" depart="774.00">
        <route edges="-l1_4 l3_3 -l2_3 l4_1 -l3_1 l1_2 -l4_2 l2_4"/>
    </vehicle>
    <vehicle id="776" depart="776.00">
        <route edges="l2_1 -l4_1 l2_3 -l1_3"/>
    </vehicle>
    <vehicle id="781" depart="781.00">
        <route edges="-l2_4 l4_2 -l3_2"/>
    </vehicle>
    <vehicle id="782" depart="782.00">
        <route edges="-l3_3"/>
    </vehicle>
    <vehicle id="783" depart="783.00">
        <route edges="l2_2 -l4_2 l2_4 -l1_4 l3_3 -l2_3 l4_1 -l3_1 l1_2 -l3_2"/>
    </vehicle>
    <vehicle id="784" depart="784.00">
        <route edges="l4_1 -l3_1 l1_2 -l4_2 l2_4 -l4_4"/>
    </vehicle>
    <vehicle id="786" depart="786.00">
        <route edges="l1_3 -l3_3 l1_4"/>
    </vehicle>
    <vehicle id="789" depart="789.00">
        <route edges="-l3_3 l1_4"/>
    </vehicle>
    <vehicle id="790" depart="790.00">
        <route edges="-l4_2 l2_4 -l1_4 l3_3 -l2_3 l4_1 -l3_1"/>
    </vehicle>
    <vehicle id="791" depart="791.00">
        <route edges="-l4_2 l2_4 -l1_4 l3_3 -l2_3 l4_1 -l2_1"/>
    </vehicle>
    <vehicle id="797" depart="797.00">
        <route edges="l1_2 -l4_2"/>
    </vehicle>
    <vehicle id="802" depart="802.00">
        <route edges="l2_4 -l1_4 l3_3 -l2_3"/>
    </vehicle>
    <vehicle id="805" depart="805.00">
        <route edges="-l4_1 l2_3 -l1_3"/>
    </vehicle>
    <vehicle id="806" depart="806.00">
        <route edges="-l3_1 l1_2 -l3_2"/>
    </vehicle>
    <vehicle id="811" depart="811.00">
        <route edges="-l3_1 l1_2 -l3_2"/>
    </vehicle>
    <vehicle id="812" depart="812.00">
        <route edges="l1_2 -l4_2 l2_4 -l1_4 l3_3 -l2_3 l4_1"/>
    </vehicle>
    <vehicle id="813" depart="813.00">
        <route edges="-l3_1 l1_2 -l4_2 l2_4 -l4_4"/>
    </vehicle>
    <vehicle id="815" depart="815.00">
        <route edges="l2_1 -l4_1 l2_3 -l1_3"/>
    </vehicle>
    <vehicle id="817" depart="817.00">
        <route edges="l1_2"/>
    </vehicle>
    <vehicle id="818" depart="818.00">
        <route edges="-l4_2 l2_4 -l1_4 l3_3 -l2_3 l4_1 -l3_1"/>
    </vehicle>
    <vehicle id="824" depart="824.00">
        <route edges="-l2_4"/>
    </vehicle>
    <vehicle id="830" depart="830.00">
        <route edges="l1_1 -l4_1 l2_3 -l4_3"/>
    </vehicle>
    <vehicle id="834" depart="834.00">
        <route edges="l2_4 -l1_4 l3_3 -l2_3 l4_1 -l3_1 l1_2 -l4_2"/>
    </vehicle>
    <vehicle id="837" depart="837.00">
        <route edges="l2_1 -l4_1"/>
    </vehicle>
    <vehicle id="840" depart="840.00">