<?xml version="1.0" encoding="UTF-8"?>
<edges xmlns:xsi="http://www.w3.org/2001/XMLSchema-instance" xsi:noNamespaceSchemaLocation="http://sumo.dlr.de/xsd/edges_file.xsd">
    <!--- nao sei a respeito dessa velocidade -->
   <edge id="l1_f" from="left" to="center" priority="100" numLanes="1" speed="19.444" />
   <edge id="-l1_f" from="center" to="left" priority="100" numLanes="1" speed="11.111" />

   <edge id="l2_f" from="up" to="center" priority="50" numLanes="1" speed="19.444" />
   <edge id="-l2_f" from="center" to="up" priority="50" numLanes="1" speed="11.111" />

   <edge id="l3_f" from="right" to="center" priority="100" numLanes="1" speed="19.444" />
   <edge id="-l3_f" from="center" to="right" priority="100" numLanes="1" speed="11.111" />

   <edge id="l4_f" from="down" to="center" priority="50" numLanes="1" speed="19.444" />
   <edge id="-l4_f" from="center" to="down" priority="50" numLanes="1" speed="11.111" />

   <!-- Smart light edges -->
   <edge id="l1_s" from="left_2" to="center_2" priority="100" numLanes="1" speed="19.444" />
   <edge id="-l1_s" from="center_2" to="left_2" priority="100" numLanes="1" speed="11.111" />

   <edge id="l2_s" from="up_2" to="center_2" priority="50" numLanes="1" speed="19.444" />
   <edge id="-l2_s" from="center_2" to="up_2" priority="50" numLanes="1" speed="11.111" />

   <edge id="l3_s" from="right_2" to="center_2" priority="100" numLanes="1" speed="19.444" />
   <edge id="-l3_s" from="center_2" to="right_2" priority="100" numLanes="1" speed="11.111" />

   <edge id="l4_s" from="down_2" to="center_2" priority="50" numLanes="1" speed="19.444" />
   <edge id="-l4_s" from="center_2" to="down_2" priority="50" numLanes="1" speed="11.111" />


</edges>
