<?xml version="1.0" encoding="UTF-8"?>

<routes>
    <vType id="CarA" accel="2.6" decel="4.5" length="5.0" minGap="10.0" maxSpeed="60.0" sigma="0.5" />

    <route id="l1_-l3_f" edges="l1_f -l3_f" />
    <route id="l3_-l1_f" edges="l3_f -l1_f" />
    <route id="l2_-l4_f" edges="l2_f -l4_f" />
    <route id="l4_-l2_f" edges="l4_f -l2_f" />

    <route id="l1_-l3_s" edges="l1_s -l3_s" />
    <route id="l3_-l1_s" edges="l3_s -l1_s" />
    <route id="l2_-l4_s" edges="l2_s -l4_s" />
    <route id="l4_-l2_s" edges="l4_s -l2_s" />

</routes>
