<?xml version="1.0" encoding="UTF-8"?>

<!-- generated on Sun 25 Feb 2018 04:25:30 PM -03 by Netedit Version v0_32_0+0424-45083a6
<configuration xmlns:xsi="http://www.w3.org/2001/XMLSchema-instance" xsi:noNamespaceSchemaLocation="http://sumo.dlr.de/xsd/netconvertConfiguration.xsd">

    <input>
        <sumo-net-file value="schutter.net.xml"/>
    </input>

    <output>
        <output-file value="schutter.net.xml"/>
    </output>

    <processing>
        <no-turnarounds value="true"/>
        <offset.disable-normalization value="true"/>
        <lefthand value="false"/>
        <junctions.corner-detail value="0"/>
        <rectangular-lane-cut value="false"/>
        <walkingareas value="false"/>
    </processing>

</configuration>
-->

<net version="0.27" xmlns:xsi="http://www.w3.org/2001/XMLSchema-instance" xsi:noNamespaceSchemaLocation="http://sumo.dlr.de/xsd/net_file.xsd">

    <location netOffset="4500.00,500.00" convBoundary="-200.00,-200.00,200.00,200.00" origBoundary="-4500.00,-500.00,4500.00,500.00" projParameter="!"/>

    <edge id=":center_0" function="internal">
        <lane id=":center_0_0" index="0" speed="15.28" length="5.00" shape="-101.65,104.75 -101.84,103.39 -102.43,102.43 -103.39,101.84 -104.75,101.65"/>
    </edge>
    <edge id=":center_1" function="internal">
        <lane id=":center_1_0" index="0" speed="15.28" length="9.50" shape="-101.65,104.75 -101.65,95.25"/>
    </edge>
    <edge id=":center_2" function="internal">
        <lane id=":center_2_0" index="0" speed="15.28" length="5.00" shape="-95.25,101.65 -96.61,101.84 -97.57,102.43 -98.16,103.39 -98.35,104.75"/>
    </edge>
    <edge id=":center_3" function="internal">
        <lane id=":center_3_0" index="0" speed="15.28" length="9.50" shape="-95.25,101.65 -104.75,101.65"/>
    </edge>
    <edge id=":center_4" function="internal">
        <lane id=":center_4_0" index="0" speed="15.28" length="5.00" shape="-98.35,95.25 -98.16,96.61 -97.57,97.57 -96.61,98.16 -95.25,98.35"/>
    </edge>
    <edge id=":center_5" function="internal">
        <lane id=":center_5_0" index="0" speed="15.28" length="9.50" shape="-98.35,95.25 -98.35,104.75"/>
    </edge>
    <edge id=":center_6" function="internal">
        <lane id=":center_6_0" index="0" speed="15.28" length="5.00" shape="-104.75,98.35 -103.39,98.16 -102.43,97.57 -101.84,96.61 -101.65,95.25"/>
    </edge>
    <edge id=":center_7" function="internal">
        <lane id=":center_7_0" index="0" speed="15.28" length="9.50" shape="-104.75,98.35 -95.25,98.35"/>
    </edge>
    <edge id=":center_2_0" function="internal">
        <lane id=":center_2_0_0" index="0" speed="16.66" length="5.00" shape="98.35,104.75 98.16,103.39 97.57,102.43 96.61,101.84 95.25,101.65"/>
    </edge>
    <edge id=":center_2_1" function="internal">
        <lane id=":center_2_1_0" index="0" speed="15.28" length="9.50" shape="98.35,104.75 98.35,95.25"/>
    </edge>
    <edge id=":center_2_2" function="internal">
        <lane id=":center_2_2_0" index="0" speed="15.28" length="5.00" shape="104.75,101.65 103.39,101.84 102.43,102.43 101.84,103.39 101.65,104.75"/>
    </edge>
    <edge id=":center_2_3" function="internal">
        <lane id=":center_2_3_0" index="0" speed="16.66" length="9.50" shape="104.75,101.65 95.25,101.65"/>
    </edge>
    <edge id=":center_2_4" function="internal">
        <lane id=":center_2_4_0" index="0" speed="15.28" length="5.00" shape="101.65,95.25 101.84,96.61 102.43,97.57 103.39,98.16 104.75,98.35"/>
    </edge>
    <edge id=":center_2_5" function="internal">
        <lane id=":center_2_5_0" index="0" speed="15.28" length="9.50" shape="101.65,95.25 101.65,104.75"/>
    </edge>
    <edge id=":center_2_6" function="internal">
        <lane id=":center_2_6_0" index="0" speed="12.50" length="5.00" shape="95.25,98.35 96.61,98.16 97.57,97.57 98.16,96.61 98.35,95.25"/>
    </edge>
    <edge id=":center_2_7" function="internal">
        <lane id=":center_2_7_0" index="0" speed="12.50" length="9.50" shape="95.25,98.35 104.75,98.35"/>
    </edge>
    <edge id=":center_3_0" function="internal">
        <lane id=":center_3_0_0" index="0" speed="13.89" length="5.00" shape="-101.65,-95.25 -101.84,-96.61 -102.43,-97.57 -103.39,-98.16 -104.75,-98.35"/>
    </edge>
    <edge id=":center_3_1" function="internal">
        <lane id=":center_3_1_0" index="0" speed="13.89" length="9.50" shape="-101.65,-95.25 -101.65,-104.75"/>
    </edge>
    <edge id=":center_3_2" function="internal">
        <lane id=":center_3_2_0" index="0" speed="13.89" length="5.00" shape="-95.25,-98.35 -96.61,-98.16 -97.57,-97.57 -98.16,-96.61 -98.35,-95.25"/>
    </edge>
    <edge id=":center_3_3" function="internal">
        <lane id=":center_3_3_0" index="0" speed="13.89" length="9.50" shape="-95.25,-98.35 -104.75,-98.35"/>
    </edge>
    <edge id=":center_3_4" function="internal">
        <lane id=":center_3_4_0" index="0" speed="13.89" length="5.00" shape="-98.35,-104.75 -98.16,-103.39 -97.57,-102.43 -96.61,-101.84 -95.25,-101.65"/>
    </edge>
    <edge id=":center_3_5" function="internal">
        <lane id=":center_3_5_0" index="0" speed="13.89" length="9.50" shape="-98.35,-104.75 -98.35,-95.25"/>
    </edge>
    <edge id=":center_3_6" function="internal">
        <lane id=":center_3_6_0" index="0" speed="13.89" length="5.00" shape="-104.75,-101.65 -103.39,-101.84 -102.43,-102.43 -101.84,-103.39 -101.65,-104.75"/>
    </edge>
    <edge id=":center_3_7" function="internal">
        <lane id=":center_3_7_0" index="0" speed="13.89" length="9.50" shape="-104.75,-101.65 -95.25,-101.65"/>
    </edge>
    <edge id=":center_4_0" function="internal">
        <lane id=":center_4_0_0" index="0" speed="13.89" length="5.00" shape="98.35,-95.25 98.16,-96.61 97.57,-97.57 96.61,-98.16 95.25,-98.35"/>
    </edge>
    <edge id=":center_4_1" function="internal">
        <lane id=":center_4_1_0" index="0" speed="13.89" length="9.50" shape="98.35,-95.25 98.35,-104.75"/>
    </edge>
    <edge id=":center_4_2" function="internal">
        <lane id=":center_4_2_0" index="0" speed="13.89" length="5.00" shape="104.75,-98.35 103.39,-98.16 102.43,-97.57 101.84,-96.61 101.65,-95.25"/>
    </edge>
    <edge id=":center_4_3" function="internal">
        <lane id=":center_4_3_0" index="0" speed="13.89" length="9.50" shape="104.75,-98.35 95.25,-98.35"/>
    </edge>
    <edge id=":center_4_4" function="internal">
        <lane id=":center_4_4_0" index="0" speed="13.89" length="5.00" shape="101.65,-104.75 101.84,-103.39 102.43,-102.43 103.39,-101.84 104.75,-101.65"/>
    </edge>
    <edge id=":center_4_5" function="internal">
        <lane id=":center_4_5_0" index="0" speed="13.89" length="9.50" shape="101.65,-104.75 101.65,-95.25"/>
    </edge>
    <edge id=":center_4_6" function="internal">
        <lane id=":center_4_6_0" index="0" speed="13.89" length="5.00" shape="95.25,-101.65 96.61,-101.84 97.57,-102.43 98.16,-103.39 98.35,-104.75"/>
    </edge>
    <edge id=":center_4_7" function="internal">
        <lane id=":center_4_7_0" index="0" speed="13.89" length="9.50" shape="95.25,-101.65 104.75,-101.65"/>
    </edge>
    <edge id=":down_0" function="internal">
        <lane id=":down_0_0" index="0" speed="12.50" length="0.10" shape="-101.65,0.00 -101.65,0.00"/>
    </edge>
    <edge id=":down_1" function="internal">
        <lane id=":down_1_0" index="0" speed="16.66" length="0.10" shape="-98.35,0.00 -98.35,0.00"/>
    </edge>
    <edge id=":down_2_0" function="internal">
        <lane id=":down_2_0_0" index="0" speed="12.50" length="0.10" shape="98.35,0.00 98.35,0.00"/>
    </edge>
    <edge id=":down_2_1" function="internal">
        <lane id=":down_2_1_0" index="0" speed="16.66" length="0.10" shape="101.65,0.00 101.65,0.00"/>
    </edge>
    <edge id=":right_0" function="internal">
        <lane id=":right_0_0" index="0" speed="16.66" length="0.10" shape="0.00,101.65 0.00,101.65"/>
    </edge>
    <edge id=":right_1" function="internal">
        <lane id=":right_1_0" index="0" speed="12.50" length="0.10" shape="0.00,98.35 0.00,98.35"/>
    </edge>
    <edge id=":right_3_0" function="internal">
        <lane id=":right_3_0_0" index="0" speed="13.89" length="0.10" shape="0.00,-98.35 0.00,-98.35"/>
    </edge>
    <edge id=":right_3_1" function="internal">
        <lane id=":right_3_1_0" index="0" speed="13.89" length="0.10" shape="0.00,-101.65 0.00,-101.65"/>
    </edge>

    <edge id="-gneE1" from="center_2" to="right" priority="1">
        <lane id="-gneE1_0" index="0" speed="13.89" length="95.25" shape="95.25,101.65 0.00,101.65"/>
    </edge>
    <edge id="-gneE10" from="center_4" to="down_4" priority="1">
        <lane id="-gneE10_0" index="0" speed="13.89" length="95.25" shape="98.35,-104.75 98.35,-200.00"/>
    </edge>
    <edge id="-gneE2" from="down_3" to="center_3" priority="1">
        <lane id="-gneE2_0" index="0" speed="13.89" length="95.25" shape="-98.35,-200.00 -98.35,-104.75"/>
    </edge>
    <edge id="-gneE4" from="center_3" to="left_3" priority="1">
        <lane id="-gneE4_0" index="0" speed="13.89" length="95.25" shape="-104.75,-98.35 -200.00,-98.35"/>
    </edge>
    <edge id="-gneE5" from="center_3" to="right_3" priority="1">
        <lane id="-gneE5_0" index="0" speed="13.89" length="95.25" shape="-95.25,-101.65 0.00,-101.65"/>
    </edge>
    <edge id="-gneE6" from="center_3" to="down" priority="1">
        <lane id="-gneE6_0" index="0" speed="13.89" length="95.25" shape="-98.35,-95.25 -98.35,0.00"/>
    </edge>
    <edge id="-gneE7" from="down_2" to="center_4" priority="1">
        <lane id="-gneE7_0" index="0" speed="13.89" length="95.25" shape="98.35,0.00 98.35,-95.25"/>
    </edge>
    <edge id="-gneE8" from="right_3" to="center_4" priority="1">
        <lane id="-gneE8_0" index="0" speed="13.89" length="95.25" shape="0.00,-101.65 95.25,-101.65"/>
    </edge>
    <edge id="-gneE9" from="center_4" to="right_4" priority="1">
        <lane id="-gneE9_0" index="0" speed="13.89" length="95.25" shape="104.75,-101.65 200.00,-101.65"/>
    </edge>
    <edge id="-l1_f" from="center" to="left" priority="100">
        <lane id="-l1_f_0" index="0" speed="11.11" length="95.25" shape="-104.75,101.65 -200.00,101.65"/>
    </edge>
    <edge id="-l2_f" from="center" to="up" priority="50">
        <lane id="-l2_f_0" index="0" speed="11.11" length="95.25" shape="-98.35,104.75 -98.35,200.00"/>
    </edge>
    <edge id="-l2_s" from="center_2" to="up_2" priority="50">
        <lane id="-l2_s_0" index="0" speed="11.11" length="95.25" shape="101.65,104.75 101.65,200.00"/>
    </edge>
    <edge id="-l3_f" from="center" to="right" priority="100">
        <lane id="-l3_f_0" index="0" speed="11.11" length="95.25" shape="-95.25,98.35 0.00,98.35"/>
    </edge>
    <edge id="-l3_s" from="center_2" to="right_2" priority="100">
        <lane id="-l3_s_0" index="0" speed="11.11" length="95.25" shape="104.75,98.35 200.00,98.35"/>
    </edge>
    <edge id="-l4_f" from="center" to="down" priority="50">
        <lane id="-l4_f_0" index="0" speed="11.11" length="95.25" shape="-101.65,95.25 -101.65,0.00"/>
    </edge>
    <edge id="-l4_s" from="center_2" to="down_2" priority="50">
        <lane id="-l4_s_0" index="0" speed="11.11" length="95.25" shape="98.35,95.25 98.35,0.00"/>
    </edge>
    <edge id="gneE1" from="right" to="center_2" priority="1">
        <lane id="gneE1_0" index="0" speed="13.89" length="95.25" shape="0.00,98.35 95.25,98.35"/>
    </edge>
    <edge id="gneE10" from="down_4" to="center_4" priority="1">
        <lane id="gneE10_0" index="0" speed="13.89" length="95.25" shape="101.65,-200.00 101.65,-104.75"/>
    </edge>
    <edge id="gneE2" from="center_3" to="down_3" priority="1">
        <lane id="gneE2_0" index="0" speed="13.89" length="95.25" shape="-101.65,-104.75 -101.65,-200.00"/>
    </edge>
    <edge id="gneE4" from="left_3" to="center_3" priority="1">
        <lane id="gneE4_0" index="0" speed="13.89" length="95.25" shape="-200.00,-101.65 -104.75,-101.65"/>
    </edge>
    <edge id="gneE5" from="right_3" to="center_3" priority="1">
        <lane id="gneE5_0" index="0" speed="13.89" length="95.25" shape="0.00,-98.35 -95.25,-98.35"/>
    </edge>
    <edge id="gneE6" from="down" to="center_3" priority="1">
        <lane id="gneE6_0" index="0" speed="13.89" length="95.25" shape="-101.65,0.00 -101.65,-95.25"/>
    </edge>
    <edge id="gneE7" from="center_4" to="down_2" priority="1">
        <lane id="gneE7_0" index="0" speed="13.89" length="95.25" shape="101.65,-95.25 101.65,0.00"/>
    </edge>
    <edge id="gneE8" from="center_4" to="right_3" priority="1">
        <lane id="gneE8_0" index="0" speed="13.89" length="95.25" shape="95.25,-98.35 0.00,-98.35"/>
    </edge>
    <edge id="gneE9" from="right_4" to="center_4" priority="1">
        <lane id="gneE9_0" index="0" speed="13.89" length="95.25" shape="200.00,-98.35 104.75,-98.35"/>
    </edge>
    <edge id="l1_f" from="left" to="center" priority="100">
        <lane id="l1_f_0" index="0" speed="19.44" length="95.25" shape="-200.00,98.35 -104.75,98.35"/>
    </edge>
    <edge id="l2_f" from="up" to="center" priority="50">
        <lane id="l2_f_0" index="0" speed="19.44" length="95.25" shape="-101.65,200.00 -101.65,104.75"/>
    </edge>
    <edge id="l2_s" from="up_2" to="center_2" priority="50">
        <lane id="l2_s_0" index="0" speed="19.44" length="95.25" shape="98.35,200.00 98.35,104.75"/>
    </edge>
    <edge id="l3_f" from="right" to="center" priority="100">
        <lane id="l3_f_0" index="0" speed="19.44" length="95.25" shape="0.00,101.65 -95.25,101.65"/>
    </edge>
    <edge id="l3_s" from="right_2" to="center_2" priority="100">
        <lane id="l3_s_0" index="0" speed="19.44" length="95.25" shape="200.00,101.65 104.75,101.65"/>
    </edge>
    <edge id="l4_f" from="down" to="center" priority="50">
        <lane id="l4_f_0" index="0" speed="19.44" length="95.25" shape="-98.35,0.00 -98.35,95.25"/>
    </edge>
    <edge id="l4_s" from="down_2" to="center_2" priority="50">
        <lane id="l4_s_0" index="0" speed="19.44" length="95.25" shape="101.65,0.00 101.65,95.25"/>
    </edge>

    <tlLogic id="center" type="static" programID="0" offset="0">
        <phase duration="39" state="rrGGrrGG"/>
        <phase duration="6" state="rryyrryy"/>
        <phase duration="39" state="GGrrGGrr"/>
        <phase duration="6" state="yyrryyrr"/>
    </tlLogic>
    <tlLogic id="center_2" type="static" programID="0" offset="0">
        <phase duration="40" state="GGrrGGrr"/>
        <phase duration="5" state="yyrryyrr"/>
        <phase duration="40" state="rrGGrrGG"/>
        <phase duration="5" state="rryyrryy"/>
    </tlLogic>
    <tlLogic id="center_3" type="static" programID="0" offset="0">
        <phase duration="42" state="GGrrGGrr"/>
        <phase duration="3" state="yyrryyrr"/>
        <phase duration="42" state="rrGGrrGG"/>
        <phase duration="3" state="rryyrryy"/>
    </tlLogic>
    <tlLogic id="gneJ8" type="static" programID="0" offset="0">
        <phase duration="42" state="GGrrGGrr"/>
        <phase duration="3" state="yyrryyrr"/>
        <phase duration="42" state="rrGGrrGG"/>
        <phase duration="3" state="rryyrryy"/>
    </tlLogic>

    <junction id="center" type="traffic_light" x="-100.00" y="100.00" incLanes="l2_f_0 l3_f_0 l4_f_0 l1_f_0" intLanes=":center_0_0 :center_1_0 :center_2_0 :center_3_0 :center_4_0 :center_5_0 :center_6_0 :center_7_0" shape="-103.25,104.75 -96.75,104.75 -95.25,103.25 -95.25,96.75 -96.75,95.25 -103.25,95.25 -104.75,96.75 -104.75,103.25">
        <request index="0" response="00001000" foes="00001000" cont="0"/>
        <request index="1" response="11001000" foes="11001000" cont="0"/>
        <request index="2" response="00000000" foes="00100000" cont="0"/>
        <request index="3" response="00000000" foes="00100011" cont="0"/>
        <request index="4" response="10000000" foes="10000000" cont="0"/>
        <request index="5" response="10001100" foes="10001100" cont="0"/>
        <request index="6" response="00000000" foes="00000010" cont="0"/>
        <request index="7" response="00000000" foes="00110010" cont="0"/>
    </junction>
    <junction id="center_2" type="traffic_light" x="100.00" y="100.00" incLanes="l2_s_0 l3_s_0 l4_s_0 gneE1_0" intLanes=":center_2_0_0 :center_2_1_0 :center_2_2_0 :center_2_3_0 :center_2_4_0 :center_2_5_0 :center_2_6_0 :center_2_7_0" shape="96.75,104.75 103.25,104.75 104.75,103.25 104.75,96.75 103.25,95.25 96.75,95.25 95.25,96.75 95.25,103.25">
        <request index="0" response="00001000" foes="00001000" cont="0"/>
        <request index="1" response="11001000" foes="11001000" cont="0"/>
        <request index="2" response="00000000" foes="00100000" cont="0"/>
        <request index="3" response="00000000" foes="00100011" cont="0"/>
        <request index="4" response="00000000" foes="10000000" cont="0"/>
        <request index="5" response="00001100" foes="10001100" cont="0"/>
        <request index="6" response="00000000" foes="00000010" cont="0"/>
        <request index="7" response="00110000" foes="00110010" cont="0"/>
    </junction>
    <junction id="center_3" type="traffic_light" x="-100.00" y="-100.00" incLanes="gneE6_0 gneE5_0 -gneE2_0 gneE4_0" intLanes=":center_3_0_0 :center_3_1_0 :center_3_2_0 :center_3_3_0 :center_3_4_0 :center_3_5_0 :center_3_6_0 :center_3_7_0" shape="-103.25,-95.25 -96.75,-95.25 -95.25,-96.75 -95.25,-103.25 -96.75,-104.75 -103.25,-104.75 -104.75,-103.25 -104.75,-96.75">
        <request index="0" response="00000000" foes="00001000" cont="0"/>
        <request index="1" response="00000000" foes="11001000" cont="0"/>
        <request index="2" response="00100000" foes="00100000" cont="0"/>
        <request index="3" response="00100011" foes="00100011" cont="0"/>
        <request index="4" response="00000000" foes="10000000" cont="0"/>
        <request index="5" response="00000000" foes="10001100" cont="0"/>
        <request index="6" response="00000010" foes="00000010" cont="0"/>
        <request index="7" response="00110010" foes="00110010" cont="0"/>
    </junction>
    <junction id="center_4" type="traffic_light" x="100.00" y="-100.00" incLanes="-gneE7_0 gneE9_0 gneE10_0 -gneE8_0" intLanes=":center_4_0_0 :center_4_1_0 :center_4_2_0 :center_4_3_0 :center_4_4_0 :center_4_5_0 :center_4_6_0 :center_4_7_0" shape="96.75,-95.25 103.25,-95.25 104.75,-96.75 104.75,-103.25 103.25,-104.75 96.75,-104.75 95.25,-103.25 95.25,-96.75">
        <request index="0" response="00000000" foes="00001000" cont="0"/>
        <request index="1" response="00000000" foes="11001000" cont="0"/>
        <request index="2" response="00100000" foes="00100000" cont="0"/>
        <request index="3" response="00100011" foes="00100011" cont="0"/>
        <request index="4" response="00000000" foes="10000000" cont="0"/>
        <request index="5" response="00000000" foes="10001100" cont="0"/>
        <request index="6" response="00000010" foes="00000010" cont="0"/>
        <request index="7" response="00110010" foes="00110010" cont="0"/>
    </junction>
    <junction id="down" type="priority" x="-100.00" y="0.00" incLanes="-l4_f_0 -gneE6_0" intLanes=":down_0_0 :down_1_0" shape="-103.25,0.00 -96.75,0.00 -103.25,0.00">
        <request index="0" response="00" foes="00" cont="0"/>
        <request index="1" response="00" foes="00" cont="0"/>
    </junction>
    <junction id="down_2" type="priority" x="100.00" y="0.00" incLanes="-l4_s_0 gneE7_0" intLanes=":down_2_0_0 :down_2_1_0" shape="96.75,0.00 103.25,0.00 96.75,0.00">
        <request index="0" response="00" foes="00" cont="0"/>
        <request index="1" response="00" foes="00" cont="0"/>
    </junction>
    <junction id="down_3" type="dead_end" x="-100.00" y="-200.00" incLanes="gneE2_0" intLanes="" shape="-99.95,-200.00 -103.25,-200.00 -100.05,-200.00"/>
    <junction id="down_4" type="dead_end" x="100.00" y="-200.00" incLanes="-gneE10_0" intLanes="" shape="100.05,-200.00 96.75,-200.00 99.95,-200.00"/>
    <junction id="left" type="dead_end" x="-200.00" y="100.00" incLanes="-l1_f_0" intLanes="" shape="-200.00,99.95 -200.00,103.25 -200.00,100.05"/>
    <junction id="left_3" type="dead_end" x="-200.00" y="-100.00" incLanes="-gneE4_0" intLanes="" shape="-200.00,-100.05 -200.00,-96.75 -200.00,-99.95"/>
    <junction id="right" type="priority" x="0.00" y="100.00" incLanes="-gneE1_0 -l3_f_0" intLanes=":right_0_0 :right_1_0" shape="0.00,103.25 0.00,96.75 0.00,103.25">
        <request index="0" response="00" foes="00" cont="0"/>
        <request index="1" response="00" foes="00" cont="0"/>
    </junction>
    <junction id="right_2" type="dead_end" x="200.00" y="100.00" incLanes="-l3_s_0" intLanes="" shape="200.00,100.05 200.00,96.75 200.00,99.95"/>
    <junction id="right_3" type="priority" x="0.00" y="-100.00" incLanes="gneE8_0 -gneE5_0" intLanes=":right_3_0_0 :right_3_1_0" shape="0.00,-96.75 0.00,-103.25 0.00,-96.75">
        <request index="0" response="00" foes="00" cont="0"/>
        <request index="1" response="00" foes="00" cont="0"/>
    </junction>
    <junction id="right_4" type="dead_end" x="200.00" y="-100.00" incLanes="-gneE9_0" intLanes="" shape="200.00,-99.95 200.00,-103.25 200.00,-100.05"/>
    <junction id="up" type="dead_end" x="-100.00" y="200.00" incLanes="-l2_f_0" intLanes="" shape="-100.05,200.00 -96.75,200.00 -99.95,200.00"/>
    <junction id="up_2" type="dead_end" x="100.00" y="200.00" incLanes="-l2_s_0" intLanes="" shape="99.95,200.00 103.25,200.00 100.05,200.00"/>

    <connection from="-gneE1" to="l3_f" fromLane="0" toLane="0" via=":right_0_0" dir="s" state="M"/>
    <connection from="-gneE2" to="-gneE5" fromLane="0" toLane="0" via=":center_3_4_0" tl="center_3" linkIndex="4" dir="r" state="o"/>
    <connection from="-gneE2" to="-gneE6" fromLane="0" toLane="0" via=":center_3_5_0" tl="center_3" linkIndex="5" dir="s" state="o"/>
    <connection from="-gneE5" to="-gneE8" fromLane="0" toLane="0" via=":right_3_1_0" dir="s" state="M"/>
    <connection from="-gneE6" to="l4_f" fromLane="0" toLane="0" via=":down_1_0" dir="s" state="M"/>
    <connection from="-gneE7" to="gneE8" fromLane="0" toLane="0" via=":center_4_0_0" tl="gneJ8" linkIndex="0" dir="r" state="o"/>
    <connection from="-gneE7" to="-gneE10" fromLane="0" toLane="0" via=":center_4_1_0" tl="gneJ8" linkIndex="1" dir="s" state="o"/>
    <connection from="-gneE8" to="-gneE10" fromLane="0" toLane="0" via=":center_4_6_0" tl="gneJ8" linkIndex="6" dir="r" state="o"/>
    <connection from="-gneE8" to="-gneE9" fromLane="0" toLane="0" via=":center_4_7_0" tl="gneJ8" linkIndex="7" dir="s" state="o"/>
    <connection from="-l3_f" to="gneE1" fromLane="0" toLane="0" via=":right_1_0" dir="s" state="M"/>
    <connection from="-l4_f" to="gneE6" fromLane="0" toLane="0" via=":down_0_0" dir="s" state="M"/>
    <connection from="-l4_s" to="-gneE7" fromLane="0" toLane="0" via=":down_2_0_0" dir="s" state="M"/>
    <connection from="gneE1" to="-l4_s" fromLane="0" toLane="0" via=":center_2_6_0" tl="center_2" linkIndex="6" dir="r" state="o"/>
    <connection from="gneE1" to="-l3_s" fromLane="0" toLane="0" via=":center_2_7_0" tl="center_2" linkIndex="7" dir="s" state="o"/>
    <connection from="gneE10" to="-gneE9" fromLane="0" toLane="0" via=":center_4_4_0" tl="gneJ8" linkIndex="4" dir="r" state="o"/>
    <connection from="gneE10" to="gneE7" fromLane="0" toLane="0" via=":center_4_5_0" tl="gneJ8" linkIndex="5" dir="s" state="o"/>
    <connection from="gneE4" to="gneE2" fromLane="0" toLane="0" via=":center_3_6_0" tl="center_3" linkIndex="6" dir="r" state="o"/>
    <connection from="gneE4" to="-gneE5" fromLane="0" toLane="0" via=":center_3_7_0" tl="center_3" linkIndex="7" dir="s" state="o"/>
    <connection from="gneE5" to="-gneE6" fromLane="0" toLane="0" via=":center_3_2_0" tl="center_3" linkIndex="2" dir="r" state="o"/>
    <connection from="gneE5" to="-gneE4" fromLane="0" toLane="0" via=":center_3_3_0" tl="center_3" linkIndex="3" dir="s" state="o"/>
    <connection from="gneE6" to="-gneE4" fromLane="0" toLane="0" via=":center_3_0_0" tl="center_3" linkIndex="0" dir="r" state="o"/>
    <connection from="gneE6" to="gneE2" fromLane="0" toLane="0" via=":center_3_1_0" tl="center_3" linkIndex="1" dir="s" state="o"/>
    <connection from="gneE7" to="l4_s" fromLane="0" toLane="0" via=":down_2_1_0" dir="s" state="M"/>
    <connection from="gneE8" to="gneE5" fromLane="0" toLane="0" via=":right_3_0_0" dir="s" state="M"/>
    <connection from="gneE9" to="gneE7" fromLane="0" toLane="0" via=":center_4_2_0" tl="gneJ8" linkIndex="2" dir="r" state="o"/>
    <connection from="gneE9" to="gneE8" fromLane="0" toLane="0" via=":center_4_3_0" tl="gneJ8" linkIndex="3" dir="s" state="o"/>
    <connection from="l1_f" to="-l4_f" fromLane="0" toLane="0" via=":center_6_0" tl="center" linkIndex="6" dir="r" state="o"/>
    <connection from="l1_f" to="-l3_f" fromLane="0" toLane="0" via=":center_7_0" tl="center" linkIndex="7" dir="s" state="o"/>
    <connection from="l2_f" to="-l1_f" fromLane="0" toLane="0" via=":center_0_0" tl="center" linkIndex="0" dir="r" state="o"/>
    <connection from="l2_f" to="-l4_f" fromLane="0" toLane="0" via=":center_1_0" tl="center" linkIndex="1" dir="s" state="o"/>
    <connection from="l2_s" to="-gneE1" fromLane="0" toLane="0" via=":center_2_0_0" tl="center_2" linkIndex="0" dir="r" state="o"/>
    <connection from="l2_s" to="-l4_s" fromLane="0" toLane="0" via=":center_2_1_0" tl="center_2" linkIndex="1" dir="s" state="o"/>
    <connection from="l3_f" to="-l2_f" fromLane="0" toLane="0" via=":center_2_0" tl="center" linkIndex="2" dir="r" state="o"/>
    <connection from="l3_f" to="-l1_f" fromLane="0" toLane="0" via=":center_3_0" tl="center" linkIndex="3" dir="s" state="o"/>
    <connection from="l3_s" to="-l2_s" fromLane="0" toLane="0" via=":center_2_2_0" tl="center_2" linkIndex="2" dir="r" state="o"/>
    <connection from="l3_s" to="-gneE1" fromLane="0" toLane="0" via=":center_2_3_0" tl="center_2" linkIndex="3" dir="s" state="o"/>
    <connection from="l4_f" to="-l3_f" fromLane="0" toLane="0" via=":center_4_0" tl="center" linkIndex="4" dir="r" state="o"/>
    <connection from="l4_f" to="-l2_f" fromLane="0" toLane="0" via=":center_5_0" tl="center" linkIndex="5" dir="s" state="o"/>
    <connection from="l4_s" to="-l3_s" fromLane="0" toLane="0" via=":center_2_4_0" tl="center_2" linkIndex="4" dir="r" state="o"/>
    <connection from="l4_s" to="-l2_s" fromLane="0" toLane="0" via=":center_2_5_0" tl="center_2" linkIndex="5" dir="s" state="o"/>

    <connection from=":center_0" to="-l1_f" fromLane="0" toLane="0" dir="r" state="M"/>
    <connection from=":center_1" to="-l4_f" fromLane="0" toLane="0" dir="s" state="M"/>
    <connection from=":center_2" to="-l2_f" fromLane="0" toLane="0" dir="r" state="M"/>
    <connection from=":center_3" to="-l1_f" fromLane="0" toLane="0" dir="s" state="M"/>
    <connection from=":center_4" to="-l3_f" fromLane="0" toLane="0" dir="r" state="M"/>
    <connection from=":center_5" to="-l2_f" fromLane="0" toLane="0" dir="s" state="M"/>
    <connection from=":center_6" to="-l4_f" fromLane="0" toLane="0" dir="r" state="M"/>
    <connection from=":center_7" to="-l3_f" fromLane="0" toLane="0" dir="s" state="M"/>
    <connection from=":center_2_0" to="-gneE1" fromLane="0" toLane="0" dir="r" state="M"/>
    <connection from=":center_2_1" to="-l4_s" fromLane="0" toLane="0" dir="s" state="M"/>
    <connection from=":center_2_2" to="-l2_s" fromLane="0" toLane="0" dir="r" state="M"/>
    <connection from=":center_2_3" to="-gneE1" fromLane="0" toLane="0" dir="s" state="M"/>
    <connection from=":center_2_4" to="-l3_s" fromLane="0" toLane="0" dir="r" state="M"/>
    <connection from=":center_2_5" to="-l2_s" fromLane="0" toLane="0" dir="s" state="M"/>
    <connection from=":center_2_6" to="-l4_s" fromLane="0" toLane="0" dir="r" state="M"/>
    <connection from=":center_2_7" to="-l3_s" fromLane="0" toLane="0" dir="s" state="M"/>
    <connection from=":center_3_0" to="-gneE4" fromLane="0" toLane="0" dir="r" state="M"/>
    <connection from=":center_3_1" to="gneE2" fromLane="0" toLane="0" dir="s" state="M"/>
    <connection from=":center_3_2" to="-gneE6" fromLane="0" toLane="0" dir="r" state="M"/>
    <connection from=":center_3_3" to="-gneE4" fromLane="0" toLane="0" dir="s" state="M"/>
    <connection from=":center_3_4" to="-gneE5" fromLane="0" toLane="0" dir="r" state="M"/>
    <connection from=":center_3_5" to="-gneE6" fromLane="0" toLane="0" dir="s" state="M"/>
    <connection from=":center_3_6" to="gneE2" fromLane="0" toLane="0" dir="r" state="M"/>
    <connection from=":center_3_7" to="-gneE5" fromLane="0" toLane="0" dir="s" state="M"/>
    <connection from=":center_4_0" to="gneE8" fromLane="0" toLane="0" dir="r" state="M"/>
    <connection from=":center_4_1" to="-gneE10" fromLane="0" toLane="0" dir="s" state="M"/>
    <connection from=":center_4_2" to="gneE7" fromLane="0" toLane="0" dir="r" state="M"/>
    <connection from=":center_4_3" to="gneE8" fromLane="0" toLane="0" dir="s" state="M"/>
    <connection from=":center_4_4" to="-gneE9" fromLane="0" toLane="0" dir="r" state="M"/>
    <connection from=":center_4_5" to="gneE7" fromLane="0" toLane="0" dir="s" state="M"/>
    <connection from=":center_4_6" to="-gneE10" fromLane="0" toLane="0" dir="r" state="M"/>
    <connection from=":center_4_7" to="-gneE9" fromLane="0" toLane="0" dir="s" state="M"/>
    <connection from=":down_0" to="gneE6" fromLane="0" toLane="0" dir="s" state="M"/>
    <connection from=":down_1" to="l4_f" fromLane="0" toLane="0" dir="s" state="M"/>
    <connection from=":down_2_0" to="-gneE7" fromLane="0" toLane="0" dir="s" state="M"/>
    <connection from=":down_2_1" to="l4_s" fromLane="0" toLane="0" dir="s" state="M"/>
    <connection from=":right_0" to="l3_f" fromLane="0" toLane="0" dir="s" state="M"/>
    <connection from=":right_1" to="gneE1" fromLane="0" toLane="0" dir="s" state="M"/>
    <connection from=":right_3_0" to="gneE5" fromLane="0" toLane="0" dir="s" state="M"/>