<?xml version="1.0" encoding="UTF-8"?>
<!-- generated on 2018-02-25 18:31:12.930259 by $Id$ via randomTrips.py
  options: -n schutter.net.xml -e 1000 <doubleminus>validate
-->
<routes xmlns:xsi="http://www.w3.org/2001/XMLSchema-instance" xsi:noNamespaceSchemaLocation="http://sumo.dlr.de/xsd/routes_file.xsd">
    <trip id="0" depart="0.00" from="l1_3" to="l1_4"/>
    <trip id="4" depart="4.00" from="l4_1" to="-l3_1"/>
    <trip id="6" depart="6.00" from="l3_4" to="l1_2"/>
    <trip id="8" depart="8.00" from="-l2_3" to="-l1_3"/>
    <trip id="14" depart="14.00" from="l2_1" to="l2_3"/>
    <trip id="17" depart="17.00" from="l1_1" to="l1_2"/>
    <trip id="18" depart="18.00" from="l1_2" to="l2_4"/>
    <trip id="25" depart="25.00" from="l2_1" to="l2_3"/>
    <trip id="29" depart="29.00" from="l1_1" to="-l1_3"/>
    <trip id="34" depart="34.00" from="l1_3" to="-l4_4"/>
    <trip id="35" depart="35.00" from="l4_3" to="-l3_3"/>
    <trip id="36" depart="36.00" from="l1_1" to="-l4_3"/>
    <trip id="42" depart="42.00" from="l3_2" to="-l1_2"/>
    <trip id="43" depart="43.00" from="l1_2" to="-l2_3"/>
    <trip id="54" depart="54.00" from="l1_1" to="-l4_1"/>
    <trip id="55" depart="55.00" from="l4_4" to="-l2_2"/>
    <trip id="57" depart="57.00" from="l2_2" to="l3_1"/>
    <trip id="62" depart="62.00" from="l1_1" to="-l2_1"/>
    <trip id="68" depart="68.00" from="-l1_4" to="-l3_2"/>
    <trip id="69" depart="69.00" from="-l3_1" to="l4_1"/>
    <trip id="71" depart="71.00" from="-l2_4" to="-l3_2"/>
    <trip id="72" depart="72.00" from="-l3_1" to="l4_1"/>
    <trip id="74" depart="74.00" from="-l4_2" to="-l4_4"/>
    <trip id="75" depart="75.00" from="l1_2" to="-l3_2"/>
    <trip id="76" depart="76.00" from="l4_1" to="-l2_1"/>
    <trip id="79" depart="79.00" from="-l3_1" to="-l1_4"/>
    <trip id="80" depart="80.00" from="l2_4" to="l2_4"/>
    <trip id="82" depart="82.00" from="-l1_4" to="l4_1"/>
    <trip id="87" depart="87.00" from="l3_3" to="l4_1"/>
    <trip id="96" depart="96.00" from="-l2_3" to="l4_1"/>
    <trip id="98" depart="98.00" from="-l3_1" to="l2_4"/>
    <trip id="100" depart="100.00" from="-l1_4" to="l2_4"/>
    <trip id="101" depart="101.00" from="l3_4" to="-l1_3"/>
    <trip id="104" depart="104.00" from="-l3_1" to="l2_4"/>
    <trip id="106" depart="106.00" from="l2_1" to="-l4_3"/>
    <trip id="108" depart="108.00" from="l4_1" to="-l1_3"/>
    <trip id="110" depart="110.00" from="l4_1" to="-l2_3"/>
    <trip id="113" depart="113.00" from="l1_2" to="l2_4"/>
    <trip id="114" depart="114.00" from="-l1_4" to="-l3_2"/>
    <trip id="118" depart="118.00" from="l3_4" to="l4_1"/>
    <trip id="119" depart="119.00" from="-l2_3" to="-l4_2"/>
    <trip id="121" depart="121.00" from="l1_3" to="l1_4"/>
    <trip id="126" depart="126.00" from="l1_1" to="l4_1"/>
    <trip id="129" depart="129.00" from="l2_2" to="-l2_1"/>
    <trip id="133" depart="133.00" from="l2_2" to="-l2_1"/>
    <trip id="134" depart="134.00" from="l1_4" to="l1_4"/>
    <trip id="142" depart="142.00" from="l3_3" to="-l1_4"/>
    <trip id="144" depart="144.00" from="-l3_1" to="l4_1"/>
    <trip id="148" depart="148.00" from="l1_2" to="l2_4"/>
    <trip id="156" depart="156.00" from="l1_3" to="-l3_3"/>
    <trip id="173" depart="173.00" from="l4_1" to="-l4_4"/>
    <trip id="181" depart="181.00" from="-l4_2" to="-l3_2"/>
    <trip id="188" depart="188.00" from="-l3_1" to="-l3_2"/>
    <trip id="189" depart="189.00" from="l1_1" to="l2_3"/>
    <trip id="191" depart="191.00" from="l2_2" to="-l1_1"/>
    <trip id="195" depart="195.00" from="l3_4" to="-l2_1"/>
    <trip id="197" depart="197.00" from="-l4_2" to="-l4_2"/>
    <trip id="199" depart="199.00" from="l2_2" to="l4_1"/>
    <trip id="200" depart="200.00" from="l2_2" to="-l2_1"/>
    <trip id="202" depart="202.00" from="l4_1" to="-l2_1"/>
    <trip id="205" depart="205.00" from="-l2_3" to="-l1_3"/>
    <trip id="210" depart="210.00" from="l3_1" to="l3_1"/>
    <trip id="213" depart="213.00" from="l1_2" to="-l2_1"/>
    <trip id="218" depart="218.00" from="l2_4" to="l4_1"/>
    <trip id="221" depart="221.00" from="-l1_4" to="l1_2"/>
    <trip id="223" depart="223.00" from="-l1_4" to="l1_2"/>
    <trip id="226" depart="226.00" from="l2_1" to="l2_3"/>
    <trip id="227" depart="227.00" from="l3_4" to="l4_1"/>
    <trip id="228" depart="228.00" from="l2_2" to="-l1_3"/>
    <trip id="229" depart="229.00" from="l1_3" to="-l3_4"/>
    <trip id="230" depart="230.00" from="-l4_2" to="-l3_2"/>
    <trip id="236" depart="236.00" from="l1_1" to="-l4_4"/>
    <trip id="237" depart="237.00" from="l3_4" to="-l2_4"/>
    <trip id="239" depart="239.00" from="l1_2" to="l2_4"/>
    <trip id="241" depart="241.00" from="l3_1" to="-l1_1"/>
    <trip id="243" depart="243.00" from="-l1_2" to="-l2_1"/>
    <trip id="246" depart="246.00" from="-l2_3" to="-l4_2"/>
    <trip id="252" depart="252.00" from="l3_4" to="-l3_2"/>
    <trip id="254" depart="254.00" from="l2_2" to="-l1_3"/>
    <trip id="265" depart="265.00" from="l2_4" to="-l1_3"/>
    <trip id="266" depart="266.00" from="l4_4" to="-l3_2"/>
    <trip id="270" depart="270.00" from="l1_1" to="l3_3"/>
    <trip id="272" depart="272.00" from="l2_2" to="-l3_1"/>
    <trip id="273" depart="273.00" from="l3_1" to="l3_1"/>
    <trip id="278" depart="278.00" from="l1_1" to="-l4_3"/>
    <trip id="281" depart="281.00" from="l2_1" to="l2_3"/>
    <trip id="284" depart="284.00" from="-l3_1" to="-l2_3"/>
    <trip id="285" depart="285.00" from="-l2_4" to="l4_2"/>
    <trip id="287" depart="287.00" from="l4_2" to="-l2_2"/>
    <trip id="290" depart="290.00" from="-l1_2" to="-l2_1"/>
    <trip id="292" depart="292.00" from="l1_4" to="-l3_4"/>
    <trip id="294" depart="294.00" from="l1_1" to="l1_2"/>
    <trip id="295" depart="295.00" from="l1_2" to="l1_2"/>
    <trip id="296" depart="296.00" from="l4_3" to="l1_4"/>
    <trip id="297" depart="297.00" from="l2_4" to="l3_3"/>
    <trip id="303" depart="303.00" from="l3_4" to="-l2_4"/>
    <trip id="309" depart="309.00" from="l4_4" to="-l3_2"/>
    <trip id="312" depart="312.00" from="l4_1" to="-l2_1"/>
    <trip id="315" depart="315.00" from="l2_1" to="-l1_3"/>
    <trip id="320" depart="320.00" from="l3_2" to="-l1_2"/>
    <trip id="321" depart="321.00" from="l1_2" to="-l4_4"/>
    <trip id="322" depart="322.00" from="l2_3" to="l2_3"/>
    <trip id="323" depart="323.00" from="-l4_1" to="l2_3"/>
    <trip id="324" depart="324.00" from="l2_4" to="-l1_3"/>
    <trip id="327" depart="327.00" from="-l4_1" to="l2_3"/>
    <trip id="328" depart="328.00" from="l2_3" to="l2_3"/>
    <trip id="330" depart="330.00" from="-l4_2" to="l2_4"/>
    <trip id="331" depart="331.00" from="-l3_3" to="-l3_3"/>
    <trip id="332" depart="332.00" from="l2_4" to="-l4_4"/>
    <trip id="338" depart="338.00" from="l4_4" to="-l3_2"/>
    <trip id="347" depart="347.00" from="-l1_2" to="l3_1"/>
    <trip id="348" depart="348.00" from="l1_2" to="-l1_3"/>
    <trip id="350" depart="350.00" from="-l4_1" to="-l1_3"/>
    <trip id="351" depart="351.00" from="l3_4" to="l4_2"/>
    <trip id="356" depart="356.00" from="l2_2" to="-l1_1"/>
    <trip id="360" depart="360.00" from="l2_1" to="l2_3"/>
    <trip id="361" depart="361.00" from="-l4_2" to="-l3_1"/>
    <trip id="365" depart="365.00" from="l4_1" to="-l1_4"/>
    <trip id="367" depart="367.00" from="l3_3" to="l3_3"/>
    <trip id="369" depart="369.00" from="-l3_1" to="-l3_1"/>
    <trip id="371" depart="371.00" from="-l1_2" to="-l2_1"/>
    <trip id="377" depart="377.00" from="-l2_3" to="-l4_4"/>
    <trip id="378" depart="378.00" from="-l1_4" to="-l4_2"/>
    <trip id="387" depart="387.00" from="-l2_4" to="-l2_4"/>
    <trip id="388" depart="388.00" from="-l1_4" to="-l4_2"/>
    <trip id="396" depart="396.00" from="-l1_2" to="-l1_2"/>
    <trip id="398" depart="398.00" from="l3_4" to="l1_2"/>
    <trip id="402" depart="402.00" from="l4_4" to="l4_2"/>
    <trip id="404" depart="404.00" from="l3_3" to="-l1_3"/>
    <trip id="406" depart="406.00" from="-l1_4" to="l2_4"/>
    <trip id="407" depart="407.00" from="l4_3" to="l3_3"/>
    <trip id="409" depart="409.00" from="l3_3" to="-l3_2"/>
    <trip id="413" depart="413.00" from="-l4_1" to="l2_3"/>
    <trip id="414" depart="414.00" from="-l3_1" to="-l4_2"/>
    <trip id="416" depart="416.00" from="l1_2" to="-l3_1"/>
    <trip id="417" depart="417.00" from="-l1_2" to="-l1_2"/>
    <trip id="424" depart="424.00" from="l4_1" to="-l4_2"/>
    <trip id="429" depart="429.00" from="l2_4" to="-l3_1"/>
    <trip id="430" depart="430.00" from="l4_3" to="-l3_2"/>
    <trip id="433" depart="433.00" from="l4_3" to="-l3_1"/>
    <trip id="434" depart="434.00" from="l4_1" to="-l4_4"/>
    <trip id="435" depart="435.00" from="l3_4" to="l4_2"/>
    <trip id="437" depart="437.00" from="l3_4" to="l2_4"/>
    <trip id="438" depart="438.00" from="l2_4" to="-l4_2"/>
    <trip id="444" depart="444.00" from="l3_3" to="l2_4"/>
    <trip id="445" depart="445.00" from="l3_3" to="-l2_1"/>
    <trip id="446" depart="446.00" from="-l4_2" to="-l1_4"/>
    <trip id="448" depart="448.00" from="-l4_2" to="-l1_3"/>
    <trip id="450" depart="450.00" from="l1_1" to="-l4_2"/>
    <trip id="453" depart="453.00" from="l4_4" to="l4_2"/>
    <trip id="454" depart="454.00" from="-l2_3" to="-l4_2"/>
    <trip id="456" depart="456.00" from="-l2_3" to="-l4_4"/>
    <trip id="457" depart="457.00" from="l2_2" to="-l1_2"/>
    <trip id="458" depart="458.00" from="-l1_2" to="-l1_2"/>
    <trip id="460" depart="460.00" from="l1_1" to="l1_2"/>
    <trip id="462" depart="462.00" from="-l2_4" to="-l2_2"/>
    <trip id="468" depart="468.00" from="l1_2" to="-l1_3"/>
    <trip id="472" depart="472.00" from="-l4_2" to="-l1_4"/>
    <trip id="475" depart="475.00" from="l3_4" to="-l2_4"/>
    <trip id="479" depart="479.00" from="l4_2" to="-l2_2"/>
    <trip id="484" depart="484.00" from="-l1_4" to="l4_1"/>
    <trip id="485" depart="485.00" from="l2_4" to="-l1_3"/>
    <trip id="489" depart="489.00" from="l4_3" to="-l2_1"/>
    <trip id="490" depart="490.00" from="l2_4" to="l4_1"/>
    <trip id="497" depart="497.00" from="-l4_2" to="-l4_2"/>
    <trip id="499" depart="499.00" from="l2_2" to="-l3_1"/>
    <trip id="503" depart="503.00" from="-l1_2" to="l3_1"/>
    <trip id="509" depart="509.00" from="l3_3" to="l4_1"/>
    <trip id="510" depart="510.00" from="-l2_3" to="-l1_4"/>
    <trip id="514" depart="514.00" from="-l3_1" to="-l2_1"/>
    <trip id="516" depart="516.00" from="l2_4" to="-l3_2"/>
    <trip id="517" depart="517.00" from="l4_4" to="-l3_2"/>
    <trip id="519" depart="519.00" from="l2_2" to="l1_2"/>
    <trip id="522" depart="522.00" from="l1_2" to="-l2_3"/>
    <trip id="525" depart="525.00" from="-l4_2" to="l4_1"/>
    <trip id="528" depart="528.00" from="l4_3" to="-l4_4"/>
    <trip id="531" depart="531.00" from="l1_2" to="l3_3"/>
    <trip id="533" depart="533.00" from="-l1_4" to="-l3_2"/>
    <trip id="534" depart="534.00" from="l4_2" to="l4_2"/>
    <trip id="536" depart="536.00" from="-l2_3" to="l4_1"/>
    <trip id="539" depart="539.00" from="l4_3" to="-l3_1"/>
    <trip id="541" depart="541.00" from="-l2_3" to="l4_1"/>
    <trip id="547" depart="547.00" from="l1_4" to="-l4_4"/>
    <trip id="548" depart="548.00" from="l2_1" to="l2_3"/>
    <trip id="549" depart="549.00" from="l4_4" to="-l3_2"/>
    <trip id="550" depart="550.00" from="-l4_2" to="-l3_1"/>
    <trip id="552" depart="552.00" from="l1_2" to="l4_1"/>
    <trip id="562" depart="562.00" from="l4_1" to="-l2_1"/>
    <trip id="569" depart="569.00" from="l4_1" to="l3_3"/>
    <trip id="571" depart="571.00" from="l4_1" to="-l3_2"/>
    <trip id="573" depart="573.00" from="-l1_4" to="-l1_3"/>
    <trip id="577" depart="577.00" from="l1_1" to="l3_3"/>
    <trip id="590" depart="590.00" from="l3_4" to="-l3_2"/>
    <trip id="591" depart="591.00" from="l2_2" to="-l1_1"/>
    <trip id="592" depart="592.00" from="-l2_3" to="l3_3"/>
    <trip id="595" depart="595.00" from="-l1_4" to="-l4_2"/>
    <trip id="596" depart="596.00" from="l1_1" to="-l2_3"/>
    <trip id="598" depart="598.00" from="l1_2" to="l3_3"/>
    <trip id="600" depart="600.00" from="-l4_2" to="-l3_1"/>
    <trip id="606" depart="606.00" from="l4_1" to="-l1_3"/>
    <trip id="607" depart="607.00" from="-l1_4" to="-l4_2"/>
    <trip id="609" depart="609.00" from="-l1_4" to="-l1_4"/>
    <trip id="610" depart="610.00" from="l1_2" to="l3_3"/>
    <trip id="615" depart="615.00" from="l2_2" to="-l2_3"/>
    <trip id="616" depart="616.00" from="l1_2" to="-l2_3"/>
    <trip id="617" depart="617.00" from="l1_1" to="-l4_3"/>
    <trip id="620" depart="620.00" from="l3_1" to="-l1_1"/>
    <trip id="623" depart="623.00" from="-l1_4" to="-l1_4"/>
    <trip id="625" depart="625.00" from="-l3_1" to="-l4_4"/>
    <trip id="626" depart="626.00" from="l1_1" to="l3_3"/>
    <trip id="628" depart="628.00" from="-l3_1" to="l4_1"/>
    <trip id="629" depart="629.00" from="-l2_3" to="l4_1"/>
    <trip id="630" depart="630.00" from="l3_4" to="l1_2"/>
    <trip id="633" depart="633.00" from="l2_1" to="-l1_3"/>
    <trip id="634" depart="634.00" from="l1_2" to="-l3_1"/>
    <trip id="635" depart="635.00" from="l4_1" to="-l1_4"/>
    <trip id="637" depart="637.00" from="l4_1" to="l4_1"/>
    <trip id="640" depart="640.00" from="l3_4" to="-l2_4"/>
    <trip id="642" depart="642.00" from="-l3_1" to="l3_3"/>
    <trip id="644" depart="644.00" from="-l2_3" to="-l3_1"/>
    <trip id="646" depart="646.00" from="l2_1" to="l2_3"/>
    <trip id="651" depart="651.00" from="-l2_3" to="-l4_2"/>
    <trip id="652" depart="652.00" from="l3_3" to="l3_3"/>
    <trip id="655" depart="655.00" from="-l3_3" to="-l3_3"/>
    <trip id="656" depart="656.00" from="-l3_3" to="-l3_4"/>
    <trip id="658" depart="658.00" from="l4_1" to="-l3_2"/>
    <trip id="662" depart="662.00" from="-l3_3" to="-l3_3"/>
    <trip id="663" depart="663.00" from="l3_3" to="l4_1"/>
    <trip id="664" depart="664.00" from="l1_2" to="-l3_2"/>
    <trip id="666" depart="666.00" from="-l2_4" to="-l2_4"/>
    <trip id="676" depart="676.00" from="-l1_4" to="l3_3"/>
    <trip id="680" depart="680.00" from="-l1_4" to="-l3_1"/>
    <trip id="686" depart="686.00" from="-l1_4" to="l3_3"/>
    <trip id="690" depart="690.00" from="l4_3" to="-l3_3"/>
    <trip id="691" depart="691.00" from="l4_3" to="-l2_1"/>
    <trip id="692" depart="692.00" from="-l2_3" to="-l3_2"/>
    <trip id="693" depart="693.00" from="l4_1" to="l4_1"/>
    <trip id="694" depart="694.00" from="l3_4" to="-l2_1"/>
    <trip id="696" depart="696.00" from="l3_2" to="-l1_2"/>
    <trip id="700" depart="700.00" from="l4_3" to="l1_4"/>
    <trip id="704" depart="704.00" from="l1_3" to="-l3_3"/>
    <trip id="705" depart="705.00" from="l2_1" to="l2_3"/>
    <trip id="706" depart="706.00" from="-l2_4" to="-l2_4"/>
    <trip id="708" depart="708.00" from="l1_2" to="l4_1"/>
    <trip id="710" depart="710.00" from="-l4_2" to="-l3_2"/>
    <trip id="714" depart="714.00" from="-l3_1" to="l4_1"/>
    <trip id="717" depart="717.00" from="-l2_3" to="l1_2"/>
    <trip id="722" depart="722.00" from="l2_2" to="l3_3"/>
    <trip id="725" depart="725.00" from="l3_4" to="-l4_2"/>
    <trip id="728" depart="728.00" from="l1_3" to="-l3_3"/>
    <trip id="734" depart="734.00" from="l4_3" to="-l4_4"/>
    <trip id="737" depart="737.00" from="l3_3" to="l3_3"/>
    <trip id="741" depart="741.00" from="l2_2" to="l2_4"/>
    <trip id="752" depart="752.00" from="l1_3" to="l1_4"/>
    <trip id="762" depart="762.00" from="l2_3" to="-l1_3"/>
    <trip id="763" depart="763.00" from="-l1_4" to="-l1_4"/>
    <trip id="764" depart="764.00" from="-l3_3" to="-l3_3"/>
    <trip id="766" depart="766.00" from="-l3_3" to="-l3_4"/>
    <trip id="767" depart="767.00" from="l2_2" to="l1_2"/>
    <trip id="769" depart="769.00" from="l4_1" to="-l4_4"/>
    <trip id="774" depart="774.00" from="-l1_4" to="l2_4"/>
    <trip id="776" depart="776.00" from="l2_1" to="-l1_3"/>
    <trip id="781" depart="781.00" from="-l2_4" to="-l3_2"/>
    <trip id="782" depart="782.00" from="-l3_3" to="-l3_3"/>
    <trip id="783" depart="783.00" from="l2_2" to="-l3_2"/>
    <trip id="784" depart="784.00" from="l4_1" to="-l4_4"/>
    <trip id="786" depart="786.00" from="l1_3" to="l1_4"/>
    <trip id="789" depart="789.00" from="-l3_3" to="l1_4"/>
    <trip id="790" depart="790.00" from="-l4_2" to="-l3_1"/>
    <trip id="791" depart="791.00" from="-l4_2" to="-l2_1"/>
    <trip id="797" depart="797.00" from="l1_2" to="-l4_2"/>
    <trip id="802" depart="802.00" from="l2_4" to="-l2_3"/>
    <trip id="805" depart="805.00" from="-l4_1" to="-l1_3"/>
    <trip id="806" depart="806.00" from="-l3_1" to="-l3_2"/>
    <trip id="811" depart="811.00" from="-l3_1" to="-l3_2"/>
    <trip id="812" depart="812.00" from="l1_2" to="l4_1"/>
    <trip id="813" depart="813.00" from="-l3_1" to="-l4_4"/>
    <trip id="815" depart="815.00" from="l2_1" to="-l1_3"/>
    <trip id="817" depart="817.00" from="l1_2" to="l1_2"/>
    <trip id="818" depart="818.00" from="-l4_2" to="-l3_1"/>
    <trip id="824" depart="824.00" from="-l2_4" to="-l2_4"/>
    <trip id="830" depart="830.00" from="l1_1" to="-l4_3"/>
    <trip id="834" depart="834.00" from="l2_4" to="-l4_2"/>
    <trip id="837" depart="837.00" from="l2_1" to="-l4_1"/>
    <trip id="840" depart="840.00" from="l2_1" to="-l4_1"/>
    <trip id="844" depart="844.00" from="l1_2" to="-l2_3"/>
    <trip id="846" depart="846.00" from="-l3_3" to="-l3_4"/>
    <trip id="847" depart="847.00" from="l4_2" to="l4_2"/>
    <trip id="849" depart="849.00" from="l2_2" to="-l1_1"/>
    <trip id="850" depart="850.00" from="l3_4" to="l3_3"/>
    <trip id="851" depart="851.00" from="-l3_1" to="-l4_2"/>
    <trip id="853" depart="853.00" from="-l1_4" to="l2_4"/>
    <trip id="857" depart="857.00" from="-l4_1" to="-l4_1"/>
    <trip id="860" depart="860.00" from="l1_2" to="l3_3"/>
    <trip id="868" depart="868.00" from="-l3_1" to="-l4_4"/>
    <trip id="869" depart="869.00" from="-l2_3" to="-l4_2"/>
    <trip id="871" depart="871.00" from="l4_1" to="-l2_3"/>
    <trip id="872" depart="872.00" from="l2_2" to="l2_4"/>
    <trip id="885" depart="885.00" from="l2_2" to="-l3_1"/>
    <trip id="888" depart="888.00" from="-l3_1" to="-l2_3"/>
    <trip id="889" depart="889.00" from="l3_4" to="l4_2"/>
    <trip id="890" depart="890.00" from="-l4_2" to="l1_2"/>
    <trip id="891" depart="891.00" from="-l1_4" to="l4_1"/>
    <trip id="895" depart="895.00" from="l3_3" to="l1_2"/>
    <trip id="897" depart="897.00" from="l4_3" to="l1_4"/>
    <trip id="898" depart="898.00" from="l1_2" to="l2_4"/>
    <trip id="902" depart="902.00" from="l4_3" to="-l4_4"/>
    <trip id="908" depart="908.00" from="l3_4" to="-l4_4"/>
    <trip id="909" depart="909.00" from="l1_3" to="-l3_4"/>
    <trip id="910" depart="910.00" from="l3_4" to="-l1_3"/>
    <trip id="912" depart="912.00" from="l1_3" to="-l3_3"/>
    <trip id="914" depart="914.00" from="-l4_1" to="l2_3"/>
    <trip id="915" depart="915.00" from="l4_3" to="-l3_2"/>
    <trip id="916" depart="916.00" from="l2_2" to="l4_1"/>
    <trip id="917" depart="917.00" from="l3_2" to="-l1_1"/>
    <trip id="925" depart="925.00" from="l2_4" to="-l4_4"/>
    <trip id="926" depart="926.00" from="l1_2" to="-l3_1"/>
    <trip id="928" depart="928.00" from="l3_1" to="-l1_1"/>
    <trip id="930" depart="930.00" from="l3_4" to="-l2_1"/>
    <trip id="932" depart="932.00" from="l4_1" to="l3_3"/>
    <trip id="934" depart="934.00" from="-l3_3" to="-l3_4"/>
    <trip id="935" depart="935.00" from="-l2_3" to="-l4_2"/>
    <trip id="936" depart="936.00" from="l1_1" to="l3_3"/>
    <trip id="939" depart="939.00" from="-l1_4" to="l1_2"/>
    <trip id="943" depart="943.00" from="l2_2" to="l1_2"/>
    <trip id="944" depart="944.00" from="l2_2" to="-l1_3"/>
    <trip id="948" depart="948.00" from="l1_2" to="-l4_2"/>
    <trip id="949" depart="949.00" from="l2_4" to="-l3_1"/>
    <trip id="950" depart="950.00" from="l1_1" to="-l4_2"/>
    <trip id="951" depart="951.00" from="l2_4" to="-l2_3"/>
    <trip id="955" depart="955.00" from="l1_1" to="l2_4"/>
    <trip id="964" depart="964.00" from="l4_3" to="-l3_1"/>
    <trip id="974" depart="974.00" from="-l3_1" to="-l1_3"/>
    <trip id="976" depart="976.00" from="l4_3" to="-l4_2"/>
    <trip id="977" depart="977.00" from="l2_2" to="-l2_3"/>
    <trip id="979" depart="979.00" from="l3_3" to="l3_3"/>
    <trip id="981" depart="981.00" from="-l1_4" to="-l4_4"/>
    <trip id="986" depart="986.00" from="-l2_4" to="l4_2"/>
    <trip id="990" depart="990.00" from="l1_1" to="-l3_1"/>
    <trip id="993" depart="993.00" from="l3_4" to="-l4_4"/>
    <trip id="995" depart="995.00" from="l2_3" to="-l1_3"/>
    <trip id="998" depart="998.00" from="l2_3" to="-l1_3"/>
    <trip id="999" depart="999.00" from="-l4_2" to="l4_1"/>
</routes>
